0/ END OF BUS DATA, BEGIN LOAD DATA
   3,  '1',  1,  1,  10,  125.0,  70.0,  0,  0,  0,  0,  1,  
   4,  '1',  1,  1,  10,  90.0,  40.0,  0,  0,  0,  0,  1,  
   5,  '1',  1,  1,  10,  100.0,  55.0,  0,  0,  0,  0,  1,  
   6,  '1',  1,  1,  10,  35.0,  10.0,  0,  0,  0,  0,  1,  
