0  ,100.0
PSS/E raw data
BASE CASE
   1,   'Gen1',   16.5,   3,   0,   0,   1,   10,   1.01,   0.0,   1,   
   2,   'Bus1',   230.0,   1,   0,   0,   1,   10,   1,   0,   1,   
   3,   'BusA',   230.0,   1,   0.0000,   20.0000,   1,   10,   1,   0,   1,   
   4,   'BusB',   230.0,   1,   0.0000,   10.0000,   1,   10,   1,   0,   1,   
   5,   'BusC',   230.0,   1,   0.0000,   20.0000,   1,   10,   1,   0,   1,   
   6,   'Bus2',   230.0,   1,   0,   0,   1,   10,   1,   0,   1,   
   7,   'Gen2',   18.0,   2,   0,   0,   1,   10,   1.01,   0,   1,   
   8,   'Bus3',   230.0,   1,   0,   0,   1,   10,   1,   0,   1,   
   9,   'Gen3',   13.8,   2,   0,   0,   1,   10,   1.01,   0,   1,   
