0,   100.00          / PSS/E-30.0    THU, NOV 19 2009  21:12
PSS/E LOADFLOW RAW FILE
CONVERTED FROM BPA FORMAT
 10001,'GZ-HLZ      ', 220.0000,1,     0.000,     0.000,   1,   1,1.04428,  -3.4492,   1
 10002,'ZQ-HLZ      ', 525.0000,1,     0.000,     0.000,   1,   2,1.01188,   2.9874,   2
 10003,'DCZQ=       ', 500.0000,1,     0.000,     0.000,   1,   2,1.06168,   2.7010,   1
 10004,'BA-HLZ      ', 525.0000,1,     0.000,     0.000,   1,   1,0.99343,  -4.0016,   2
 10005,'HUIZ-HLZ    ', 525.0000,1,     0.000,     0.000,   1,   1,1.01485,  -0.2126,   1
 10006,'DCHZ=       ', 500.0000,1,     0.000,     0.000,   1,   2,1.06513,  -0.4952,   1
 10007,'GD01-HLZ    ', 525.0000,1,     0.000,     0.000,   1,   2,0.99989,  -3.0654,   1
 10008,'LUODON50    ', 525.0000,1,     0.000,  -472.000,   1,   2,0.99309,   1.0919,   2
 10009,'MAOMIN50    ', 525.0000,1,     0.000,     0.000,   1,   2,0.99718,  12.1313,   2
 10010,'XIANLS50    ', 525.0000,1,     0.000,  -372.000,   1,   2,0.99997,   7.9211,   1
 10011,'GANGCH50    ', 525.0000,1,     0.000,     0.000,   1,   1,1.00601,  11.6642,   1
 10012,'NPS2        ',  26.0000,2,     0.000,     0.000,   1,   3,1.01500,   8.5547,   1
 10013,'NPS3        ',  26.0000,2,     0.000,     0.000,   1,   4,1.01500,   4.4286,   1
 10014,'NPS4        ',  26.0000,2,     0.000,     0.000,   1,   4,1.01500,   4.4286,   1
 10015,'SJA4        ',  20.0000,2,     0.000,     0.000,   1,   4,1.01500,   3.8527,   1
 10016,'SJA5        ',  20.0000,2,     0.000,     0.000,   1,   4,1.01500,   3.8527,   1
 10017,'SJB1        ',  19.0000,3,     0.000,     0.000,   1,   4,1.01500,   0.0000,   1
 10018,'SJB2        ',  19.0000,2,     0.000,     0.000,   1,   4,1.01500,   3.5570,   1
 10019,'SJC1        ',  19.0000,2,     0.000,     0.000,   1,   4,1.00500,   4.9270,   1
 10020,'SJC2        ',  19.0000,2,     0.000,     0.000,   1,   4,1.00500,   4.9023,   1
 10021,'SJC3        ',  19.0000,2,     0.000,     0.000,   1,   4,1.00500,   4.9270,   1
 10022,'PSS1        ',  18.0000,2,     0.000,     0.000,   1,   4,1.02500,   8.0793,   1
 10023,'PSS2        ',  18.0000,2,     0.000,     0.000,   1,   4,1.02500,   8.0793,   1
 10024,'PSS3        ',  18.0000,2,     0.000,     0.000,   1,   4,1.02500,   8.0793,   1
 10025,'PSS4        ',  18.0000,2,     0.000,     0.000,   1,   4,1.03800,   7.9825,   1
 10026,'PSS6        ',  18.0000,2,     0.000,     0.000,   1,   4,1.02500,   7.9931,   1
 10027,'PSS7        ',  18.0000,2,     0.000,     0.000,   1,   4,1.02500,   7.9931,   1
 10028,'PSS8        ',  18.0000,2,     0.000,     0.000,   1,   4,1.02500,   7.9931,   1
 10029,'HZX2        ',  18.0000,2,     0.000,     0.000,   1,   4,1.03500,   2.8428,   1
 10030,'ZUH3        ',  20.0000,2,     0.000,     0.000,   1,   4,1.00014,   6.5924,   1
 10031,'ZUH4        ',  20.0000,2,     0.000,     0.000,   1,   4,1.00014,   6.5924,   1
 10032,'TOG3        ',  20.0000,2,     0.000,     0.000,   1,   4,1.00000,   8.7903,   1
 10033,'TOG4        ',  20.0000,2,     0.000,     0.000,   1,   4,1.00000,   8.7903,   1
 10034,'TOG5        ',  20.0000,2,     0.000,     0.000,   1,   4,1.00000,   8.7903,   1
 10035,'LYJ1        ',  20.0000,2,     0.000,     0.000,   1,   4,1.00639,  19.5539,   1
 10036,'LYJ2        ',  20.0000,2,     0.000,     0.000,   1,   4,1.00639,  19.5539,   1
 10037,'QIAOK1      ',  22.0000,2,     0.000,     0.000,   1,   4,1.02000,  20.6368,   1
 10038,'QIAOK2      ',  22.0000,2,     0.000,     0.000,   1,   4,1.02093,  20.6308,   1
 10039,'YAX1        ',  20.0000,2,     0.000,     0.000,   1,   1,1.00800,  10.9711,   1
 10040,'HOHW1       ',  22.0000,2,     0.000,     0.000,   1,   4,1.00342,  11.1668,   1
 10041,'HOHW2       ',  22.0000,2,     0.000,     0.000,   1,   4,1.00342,  11.1668,   1
 10042,'HAIM1       ',  27.0000,2,     0.000,     0.000,   1,   1,1.02000,  16.0610,   1
 10043,'HSYB1       ',  20.0000,2,     0.000,     0.000,   1,   4,1.00368,  17.0469,   1
 10044,'HSYB2       ',  20.0000,2,     0.000,     0.000,   1,   4,1.00368,  17.0469,   1
 10045,'DAYAWAN=    ', 500.0000,1,     0.000,     0.000,   1,   3,1.05913,   1.2941,   1
 10046,'LINGAO=     ', 500.0000,1,     0.000,     0.000,   1,   1,1.05587,  -2.5081,   1
 10047,'SHAJIAC=    ', 500.0000,1,     0.000,     0.000,   1,   1,1.05181,  -2.3151,   1
 10048,'SHAJIAB=    ', 500.0000,1,     0.000,     0.000,   1,   1,1.05205,  -2.3476,   1
 10049,'XUNENG1=    ', 500.0000,1,     0.000,     0.000,   1,   1,1.06236,   1.4088,   1
 10050,'XUNENG2=    ', 500.0000,1,     0.000,     0.000,   1,   1,1.06229,   1.3222,   1
 10051,'HZXUNEN=    ', 500.0000,1,     0.000,     0.000,   1,   1,1.06214,  -1.4327,   1
 10052,'ZHUHAIB=    ', 500.0000,1,     0.000,     0.000,   1,   1,1.04610,   0.1734,   1
 10053,'TONGGU=     ', 500.0000,1,     0.000,     0.000,   1,   1,1.04663,   2.3032,   1
 10054,'LIYUJIA=    ', 500.0000,1,     0.000,     0.000,   1,   1,1.07064,  14.1524,   1
 10055,'QIAOKOU=    ', 500.0000,1,     0.000,  -123.000,   1,   1,1.06995,  14.1122,   1
 10056,'AOLIYOU=    ', 500.0000,1,     0.000,     0.000,   1,   1,1.05663,  11.6607,   1
 10057,'YANGXI=     ', 500.0000,1,     0.000,     0.000,   1,   1,1.05961,   5.5479,   1
 10058,'HONGHAW=    ', 500.0000,1,     0.000,     0.000,   1,   1,1.06261,   5.5120,   1
 10059,'HAIMEN=     ', 500.0000,1,     0.000,     0.000,   1,   1,1.06662,  10.2687,   1
 10060,'HESHUYB=    ', 500.0000,1,     0.000,     0.000,   1,   1,1.06049,  11.3670,   1
 10061,'ZCT=        ', 500.0000,1,     0.000,     0.000,   1,   1,1.04810,  -3.7205,   1
 10062,'ZENGCHE=    ', 500.0000,1,     0.000,     0.000,   1,   1,1.04805,  -2.6421,   1
 10063,'GUANGNA=    ', 500.0000,1,     0.000,     0.000,   1,   1,1.04938,  -3.8078,   1
 10064,'HUADU=      ', 500.0000,1,     0.000,  -246.000,   1,   1,1.05486,   1.1477,   1
 10065,'DCSUID=     ', 500.0000,1,     0.000,     0.000,   1,   2,1.04988,  -3.0654,   1
 10066,'XIANLS=     ', 500.0000,1,     0.000,  -198.000,   1,   1,1.05035,   7.7053,   1
 10067,'LUODONG=    ', 500.0000,1,     0.000,     0.000,   1,   1,1.04405,   0.7122,   1
 10068,'XIJIANG=    ', 500.0000,1,     0.000,     0.000,   1,   1,1.05078,   0.3515,   1
 10069,'SHUNDE=     ', 500.0000,1,     0.000,     0.000,   1,   1,1.04512,  -2.3081,   1
 10070,'YANDU=      ', 500.0000,1,     0.000,     0.000,   1,   1,1.06129,   2.5576,   1
 10071,'DGT=        ', 500.0000,1,     0.000,     0.000,   1,   1,1.05641,  -2.0717,   1
 10072,'DONGGUA=    ', 500.0000,1,     0.000,     0.000,   1,   1,1.05805,  -3.0045,   1
 10073,'HENGLI=     ', 500.0000,1,     0.000,     0.000,   1,   1,1.05444,  -2.6746,   1
 10074,'GUANCHE=    ', 500.0000,1,     0.000,     0.000,   1,   1,1.04165,  -5.8203,   1
 10075,'HUIZHOU=    ', 500.0000,1,     0.000,     0.000,   1,   1,1.06043,  -0.5168,   1
 10076,'BOLUO=      ', 500.0000,1,     0.000,     0.000,   1,   1,1.06341,  -0.7322,   1
 10077,'SHANTOU=    ', 500.0000,1,     0.000,     0.000,   1,   1,1.06403,   8.9984,   1
 10078,'MAOHU=      ', 500.0000,1,     0.000,     0.000,   1,   1,1.06328,   4.7490,   1
 10079,'JIAYING=    ', 500.0000,1,     0.000,  -198.000,   1,   1,1.06021,  11.0371,   1
 10080,'RONGJIA=    ', 500.0000,1,     0.000,  -123.000,   1,   1,1.06307,   8.4757,   1
 10081,'QUJIANG=    ', 500.0000,1,     0.000,  -297.000,   1,   1,1.05087,   5.4306,   1
 10082,'JIANGME=    ', 500.0000,1,     0.000,     0.000,   1,   1,1.04715,  -0.9366,   1
 10083,'DIELING=    ', 500.0000,1,     0.000,  -198.000,   1,   1,1.05553,   4.5137,   1
 10084,'MAOMING=    ', 500.0000,1,     0.000,  -222.000,   1,   1,1.04763,  11.9102,   1
 10085,'GANGCHE=    ', 500.0000,1,     0.000,     0.000,   1,   1,1.05611,  11.6642,   1
 10086,'XIANGSH=    ', 500.0000,1,     0.000,     0.000,   1,   1,1.04199,  -2.1126,   1
 10087,'BEIJIAO=    ', 500.0000,1,     0.000,     0.000,   1,   1,1.05068,  -0.3202,   1
 10088,'BEIJIAO     ', 220.0000,1,     0.000,     0.000,   1,   1,1.04407,  -3.6232,   1
 10089,'BJ2         ', 220.0000,1,     0.000,     0.000,   1,   1,0.99972,  -3.5859,   1
 10090,'BJ3         ', 220.0000,1,     0.000,     0.000,   1,   1,0.99968,  -3.5908,   1
 10091,'BJ32        ',  34.5000,1,     0.000,    80.000,   1,   1,1.04778,  -3.6282,   1
 10092,'BJ33        ',  34.5000,1,     0.000,    80.000,   1,   1,1.04762,  -3.6331,   1
 10093,'ZAY1        ',  20.0000,2,     0.000,     0.000,   1,   5,1.01000,   2.1739,   1
 10094,'ZAY2        ',  20.0000,2,     0.000,     0.000,   1,   5,1.01000,   2.1739,   1
 10095,'ZHAOYANG    ', 220.0000,1,     0.000,     0.000,   1,   6,1.06661,  -2.6728,   1
 10096,'QIANFAN     ', 220.0000,1,     0.000,     0.000,   1,   6,1.06584,  -2.7645,   1
 10097,'QIUCHANG    ', 220.0000,1,     0.000,     0.000,   1,   6,1.05761,  -3.5862,   1
 10098,'HUIZHOU     ', 220.0000,1,     0.000,     0.000,   1,   1,1.05620,  -3.4370,   1
 10099,'HZ1         ', 220.0000,1,     0.000,     0.000,   1,   1,1.01101,  -3.4068,   1
 10100,'HZ2         ', 220.0000,1,     0.000,     0.000,   1,   1,1.01101,  -3.4068,   1
 10101,'HZ31        ',  34.5000,1,     0.000,    40.000,   1,   1,1.03463,  -3.4242,   1
 10102,'HZ32        ',  34.5000,1,     0.000,    40.000,   1,   1,1.03463,  -3.4242,   1
 10103,'HZ3         ', 220.0000,1,     0.000,     0.000,   1,   1,1.01101,  -3.4068,   1
 10104,'HZ33        ',  34.5000,1,     0.000,    40.000,   1,   1,1.03463,  -3.4242,   1
 10105,'HUP5        ',  18.0000,2,     0.000,     0.000,   1,   5,1.01500,  -4.7302,   1
 10106,'HUP6        ',  18.0000,2,     0.000,     0.000,   1,   5,1.01500,  -4.7302,   1
 10107,'HUANGPUB    ', 220.0000,1,     0.000,     0.000,   1,   6,1.05094, -10.0199,   1
 10108,'BISHAN      ', 220.0000,1,     0.000,     0.000,   1,   6,1.03819, -11.1012,   1
 10109,'TANGXIA     ', 220.0000,1,     0.000,     0.000,   1,   6,1.03706, -10.7731,   1
 10110,'ZENGCHEA    ', 220.0000,1,     0.000,     0.000,   1,   1,1.03989,  -8.5319,   1
 10111,'ZENGCHEN    ', 220.0000,1,     0.000,     0.000,   1,   1,1.01986,  -9.3983,   1
 10112,'ZC1         ', 220.0000,1,     0.000,     0.000,   1,   1,1.00897,  -8.4673,   1
 10113,'ZC2         ', 220.0000,1,     0.000,     0.000,   1,   1,0.98984,  -9.3296,   1
 10114,'ZC3         ', 220.0000,1,     0.000,     0.000,   1,   1,0.98984,  -9.3296,   1
 10115,'ZC31        ',  34.5000,1,     0.000,    80.000,   1,   1,1.05687,  -8.5095,   1
 10116,'ZC32        ',  34.5000,1,     0.000,    80.000,   1,   1,1.03683,  -9.3718,   1
 10117,'ZC33        ',  34.5000,1,     0.000,    80.000,   1,   1,1.03683,  -9.3718,   1
 10118,'ZUJ1        ',  20.0000,2,     0.000,     0.000,   1,   5,1.01000,   0.9725,   1
 10119,'ZUJ2        ',  20.0000,2,     0.000,     0.000,   1,   5,1.01000,   0.9725,   1
 10120,'ZUJ3        ',  20.0000,2,     0.000,     0.000,   1,   5,1.01000,   0.6345,   1
 10121,'ZUJ4        ',  20.0000,2,     0.000,     0.000,   1,   5,1.01000,   0.6345,   1
 10122,'ZHUJIANG    ', 220.0000,1,     0.000,     0.000,   1,   6,1.05797,  -5.5713,   1
 10123,'GUANGNAA    ', 220.0000,1,     0.000,     0.000,   1,   1,1.03717,  -7.3111,   1
 10124,'GN1         ', 220.0000,1,     0.000,     0.000,   1,   1,1.00643,  -7.2667,   1
 10125,'GN31        ',  34.5000,1,     0.000,    60.000,   1,   1,1.03195,  -7.2864,   1
 10126,'GUANGNAB    ', 220.0000,1,     0.000,     0.000,   1,   1,1.03910,  -9.5809,   1
 10127,'GN3         ', 220.0000,1,     0.000,     0.000,   1,   1,1.00845,  -9.5058,   1
 10128,'GN33        ',  34.5000,1,     0.000,    60.000,   1,   1,1.03352,  -9.5252,   1
 10129,'GN4         ', 220.0000,1,     0.000,     0.000,   1,   1,1.00845,  -9.5058,   1
 10130,'GN34        ',  34.5000,1,     0.000,    60.000,   1,   1,1.03352,  -9.5252,   1
 10131,'ZHN1        ',  19.0000,2,     0.000,     0.000,   1,   5,1.00000,   0.9106,   1
 10132,'ZHN2        ',  19.0000,2,     0.000,     0.000,   1,   5,1.00000,   0.9106,   1
 10133,'ZHANNECH    ', 220.0000,1,     0.000,     0.000,   1,   6,1.05535,  -5.1571,   1
 10134,'HUQIAO      ', 220.0000,1,     0.000,     0.000,   1,   6,1.05302,  -5.4985,   1
 10135,'PANYU       ', 220.0000,1,     0.000,     0.000,   1,   6,1.03807,  -7.3080,   1
 10136,'HEY8        ',  20.0000,2,     0.000,     0.000,   1,   5,0.99604,  -3.0355,   1
 10137,'HEY9        ',  20.0000,2,     0.000,     0.000,   1,   5,1.00000,  -3.0604,   1
 10138,'HENGYUND    ', 220.0000,1,     0.000,     0.000,   1,   6,1.03722,  -8.3999,   1
 10139,'KAIYUANB    ', 220.0000,1,     0.000,     0.000,   1,   6,1.03325,  -8.7267,   1
 10140,'HUAPU       ', 220.0000,1,     0.000,     0.000,   1,   6,1.02153,  -9.5867,   1
 10141,'DES1        ',  20.0000,2,     0.000,     0.000,   1,   5,0.98987,  -2.2615,   1
 10142,'DES2        ',  20.0000,2,     0.000,     0.000,   1,   5,0.98987,  -2.2615,   1
 10143,'DESHENG     ', 220.0000,1,     0.000,     0.000,   1,   6,1.03403,  -7.7609,   1
 10144,'XUSHENG     ', 220.0000,1,     0.000,     0.000,   1,   6,1.03128,  -8.0265,   1
 10145,'SHUNDE      ', 220.0000,1,     0.000,     0.000,   1,   1,1.02904,  -7.4262,   1
 10146,'SD2         ', 220.0000,1,     0.000,     0.000,   1,   1,0.99883,  -7.3691,   1
 10147,'SD3         ', 220.0000,1,     0.000,     0.000,   1,   1,0.99883,  -7.3690,   1
 10148,'SD32        ',  34.5000,1,     0.000,    50.000,   1,   1,1.01870,  -7.3851,   1
 10149,'SD33        ',  34.5000,1,     0.000,    50.000,   1,   1,1.01876,  -7.3850,   1
 10150,'HEM3        ',  19.0000,2,     0.000,     0.000,   1,   5,0.96791,  -4.9011,   1
 10151,'HENGMENB    ', 220.0000,1,     0.000,     0.000,   1,   6,1.01524, -10.2959,   1
 10152,'QILE        ', 220.0000,1,     0.000,     0.000,   1,   6,1.00365, -11.5101,   1
 10153,'XIANGSHB    ', 220.0000,1,     0.000,     0.000,   1,   1,1.01362,  -9.8115,   1
 10154,'XIANGSHA    ', 220.0000,1,     0.000,     0.000,   1,   1,1.02552,  -9.5592,   1
 10155,'XS1         ', 220.0000,1,     0.000,     0.000,   1,   1,0.98232,  -9.4635,   1
 10156,'XS2         ', 220.0000,1,     0.000,     0.000,   1,   1,0.97110,  -9.7147,   1
 10157,'XS3         ', 220.0000,1,     0.000,     0.000,   1,   1,0.97108,  -9.7171,   1
 10158,'XS31        ',  34.5000,1,     0.000,   100.000,   1,   1,1.02464,  -9.4964,   1
 10159,'XS32        ',  34.5000,1,     0.000,   100.000,   1,   1,1.01283,  -9.7475,   1
 10160,'XS33        ',  34.5000,1,     0.000,   100.000,   1,   1,1.01261,  -9.7499,   1
 10161,'ZUH1        ',  22.0000,2,     0.000,     0.000,   1,   5,0.98000,  -2.4205,   1
 10162,'ZUH2        ',  22.0000,2,     0.000,     0.000,   1,   5,0.98000,  -2.4205,   1
 10163,'ZHUCHANG    ', 220.0000,1,     0.000,     0.000,   1,   6,1.01688,  -9.6695,   1
 10164,'DOUMEN      ', 220.0000,1,     0.000,     0.000,   1,   6,0.99407, -12.2371,   1
 10165,'SANXIANG    ', 220.0000,1,     0.000,     0.000,   1,   6,0.98503, -13.4070,   1
 10166,'TOG1        ',  20.0000,2,     0.000,     0.000,   1,   5,1.00000,   8.2984,   1
 10167,'TOG2        ',  20.0000,2,     0.000,     0.000,   1,   5,1.00000,   8.2984,   1
 10168,'TONGGUCH    ', 220.0000,1,     0.000,     0.000,   1,   6,1.05985,   1.8480,   1
 10169,'NENGDA      ', 220.0000,1,     0.000,     0.000,   1,   6,1.02687,  -3.5816,   1
 10170,'XINHUI      ', 220.0000,1,     0.000,     0.000,   1,   6,1.01576,  -5.4023,   1
 10171,'JIANGMEN    ', 220.0000,1,     0.000,     0.000,   1,   1,1.01661,  -5.3213,   1
 10172,'JM1         ', 220.0000,1,     0.000,     0.000,   1,   1,1.02442,  -5.2904,   1
 10173,'JM2         ', 220.0000,1,     0.000,     0.000,   1,   1,1.02442,  -5.2904,   1
 10174,'JM31        ',  34.5000,1,     0.000,    80.000,   1,   1,1.07830,  -5.3328,   1
 10175,'JM32        ',  34.5000,1,     0.000,    80.000,   1,   1,1.07830,  -5.3328,   1
 10176,'SAG10       ',  20.0000,2,     0.000,     0.000,   1,   5,1.00571,   7.9240,   1
 10177,'SAG11       ',  20.0000,2,     0.000,     0.000,   1,   5,1.00571,   7.9240,   1
 10178,'SHAOB       ', 220.0000,1,     0.000,     0.000,   1,   6,1.07119,   2.7531,   1
 10179,'QUJIANG     ', 220.0000,1,     0.000,     0.000,   1,   1,1.06926,   2.5286,   1
 10180,'QJ1         ', 220.0000,1,     0.000,     0.000,   1,   1,0.99720,   2.5636,   1
 10181,'QJ2         ', 220.0000,1,     0.000,     0.000,   1,   1,0.99703,   2.5632,   1
 10182,'QJ31        ',  34.5000,1,     0.000,     0.000,   1,   1,0.99720,   2.5636,   1
 10183,'QJ32        ',  34.5000,1,     0.000,     0.000,   1,   1,0.99703,   2.5632,   1
 10184,'YUL1        ',  13.8000,2,     0.000,     0.000,   1,   5,0.99000,   9.8722,   1
 10185,'YUL2        ',  13.8000,2,     0.000,     0.000,   1,   5,0.99000,   9.8722,   1
 10186,'YUELIAN     ', 220.0000,1,     0.000,     0.000,   1,   6,1.07642,   4.2218,   1
 10187,'XIANLS      ', 220.0000,1,     0.000,     0.000,   1,   1,1.08167,   4.0236,   1
 10188,'XLS2        ', 220.0000,1,     0.000,     0.000,   1,   1,1.04610,   4.0574,   1
 10189,'XLS32       ',  34.5000,1,     0.000,   180.000,   1,   1,1.16773,   3.8766,   1
 10190,'LUOY3       ',  13.8000,2,     0.000,     0.000,   1,   5,1.00000,   4.7225,   1
 10191,'LUOCHANG    ', 220.0000,1,     0.000,     0.000,   1,   6,1.06352,  -0.2567,   1
 10192,'ANFENG      ', 220.0000,1,     0.000,     0.000,   1,   6,1.06796,   2.0347,   1
 10193,'MAM5        ',  15.8000,2,     0.000,     0.000,   1,   5,0.97000,  16.8550,   1
 10194,'MAM6        ',  20.0000,2,     0.000,     0.000,   1,   5,0.97000,  16.8232,   1
 10195,'MAOCHANG    ', 220.0000,1,     0.000,     0.000,   1,   6,1.03156,  10.5671,   1
 10196,'DIELING     ', 220.0000,1,     0.000,     0.000,   1,   1,1.03202,   2.2388,   1
 10197,'DL2         ', 220.0000,1,     0.000,     0.000,   1,   1,1.00075,   2.2624,   1
 10198,'DL32        ',  34.5000,1,     0.000,     0.000,   1,   1,1.00075,   2.2624,   1
 10199,'DL3         ', 220.0000,1,     0.000,     0.000,   1,   1,1.00075,   2.2624,   1
 10200,'DL33        ',  34.5000,1,     0.000,     0.000,   1,   1,1.00075,   2.2624,   1
 10201,'ZAJ1        ',  20.0000,2,     0.000,     0.000,   1,   5,0.98000,  17.4778,   1
 10202,'ZAJ2        ',  20.0000,2,     0.000,     0.000,   1,   5,0.98000,  17.4778,   1
 10203,'ZAJ3        ',  20.0000,2,     0.000,     0.000,   1,   5,0.98000,  17.4778,   1
 10204,'ZAJ4        ',  20.0000,2,     0.000,     0.000,   1,   5,0.98000,  17.4778,   1
 10205,'ZHANJIAN    ', 220.0000,1,     0.000,     0.000,   1,   6,1.03450,  11.9465,   1
 10206,'CHIKAN      ', 220.0000,1,     0.000,     0.000,   1,   6,1.03150,  11.3609,   1
 10207,'SHENBEI     ', 220.0000,1,     0.000,     0.000,   1,   6,1.02865,  10.7763,   1
 10208,'GANGCHEN    ', 220.0000,1,     0.000,     0.000,   1,   1,1.02787,  10.5529,   1
 10209,'GH2         ', 220.0000,1,     0.000,     0.000,   1,   1,0.99674,  10.5635,   1
 10210,'GH32        ',  34.5000,1,     0.000,     0.000,   1,   1,0.99674,  10.5635,   1
 10211,'YUF1        ',  13.8000,2,     0.000,     0.000,   1,   5,0.97624,  -1.5620,   1
 10212,'YUF2        ',  13.8000,2,     0.000,     0.000,   1,   5,0.97624,  -1.5620,   1
 10213,'YUNFU       ', 220.0000,1,     0.000,     0.000,   1,   6,1.03832,  -4.7785,   1
 10214,'YUNFU1      ', 110.0000,1,     0.000,     0.000,   1,   6,1.02779,  -2.7202,   1
 10215,'YUNFU2      ', 110.0000,1,     0.000,     0.000,   1,   6,0.97498,  -1.5417,   1
 10216,'YUNFU3      ', 110.0000,1,     0.000,     0.000,   1,   6,1.02779,  -2.7202,   1
 10217,'YUNFU4      ', 110.0000,1,     0.000,     0.000,   1,   6,0.97498,  -1.5417,   1
 10218,'ZHUSHAN     ', 220.0000,1,     0.000,     0.000,   1,   6,1.02941,  -4.7398,   1
 10219,'YANDU       ', 220.0000,1,     0.000,     0.000,   1,   1,1.03142,  -3.9227,   1
 10220,'YD2         ', 220.0000,1,     0.000,     0.000,   1,   1,1.00050,  -3.8546,   1
 10221,'YD3         ', 220.0000,1,     0.000,     0.000,   1,   1,1.00050,  -3.8546,   1
 10222,'YD32        ',  34.5000,1,     0.000,     0.000,   1,   1,1.00050,  -3.8546,   1
 10223,'YD33        ',  34.5000,1,     0.000,     0.000,   1,   1,1.00050,  -3.8546,   1
 10224,'SAT1        ',  20.0000,2,     0.000,     0.000,   1,   5,1.00000,  14.1442,   1
 10225,'SAT2        ',  20.0000,2,     0.000,     0.000,   1,   5,1.00000,  14.1442,   1
 10226,'SAT3        ',  20.0000,2,     0.000,     0.000,   1,   5,1.00000,  15.7130,   1
 10227,'SHANCHAN    ', 220.0000,1,     0.000,     0.000,   1,   6,1.05809,   9.6013,   1
 10228,'GUANDI      ', 220.0000,1,     0.000,     0.000,   1,   6,1.04242,   8.2519,   1
 10229,'HONGLIAN    ', 220.0000,1,     0.000,     0.000,   1,   6,1.03827,   7.9485,   1
 10230,'SHANTOU     ', 220.0000,1,     0.000,     0.000,   1,   1,1.03445,   7.7418,   1
 10231,'ST1         ', 220.0000,1,     0.000,     0.000,   1,   1,1.00311,   7.7547,   1
 10232,'ST2         ', 220.0000,1,     0.000,     0.000,   1,   1,1.00317,   7.7552,   1
 10233,'ST3         ', 220.0000,1,     0.000,     0.000,   1,   1,1.00309,   7.7548,   1
 10234,'ST31        ',  34.5000,1,     0.000,   -45.000,   1,   1,0.97780,   7.7736,   1
 10235,'ST32        ',  34.5000,1,     0.000,   -45.000,   1,   1,0.97882,   7.7829,   1
 10236,'ST33        ',  34.5000,1,     0.000,   -45.000,   1,   1,0.97787,   7.7737,   1
 10237,'ZEL1        ',  20.0000,2,     0.000,     0.000,   1,   5,1.00000,  17.9328,   1
 10238,'ZEL2        ',  20.0000,2,     0.000,     0.000,   1,   5,1.00000,  17.9328,   1
 10239,'ZHELINCH    ', 220.0000,1,     0.000,     0.000,   1,   6,1.06119,  11.7741,   1
 10240,'RAOPING     ', 220.0000,1,     0.000,     0.000,   1,   6,1.04557,   9.4828,   1
 10241,'CHAOZHOU    ', 220.0000,1,     0.000,     0.000,   1,   6,1.02861,   7.1903,   1
 10242,'JINSHA      ', 220.0000,1,     0.000,     0.000,   1,   6,1.03173,   7.4735,   1
 10243,'JIH1        ',  22.0000,2,     0.000,     0.000,   1,   5,1.00000,  17.3048,   1
 10244,'JIH2        ',  22.0000,2,     0.000,     0.000,   1,   5,1.00000,  17.3048,   1
 10245,'JINGHACH    ', 220.0000,1,     0.000,     0.000,   1,   6,1.06135,  11.3410,   1
 10246,'LIANGYIN    ', 220.0000,1,     0.000,     0.000,   1,   6,1.04271,   8.5157,   1
 10247,'GURAO       ', 220.0000,1,     0.000,     0.000,   1,   6,1.03467,   7.7077,   1
 10248,'MEX3        ',  13.8000,2,     0.000,     0.000,   1,   5,0.99500,  18.7646,   1
 10249,'MEX4        ',  13.8000,2,     0.000,     0.000,   1,   5,0.99500,  18.8586,   1
 10250,'MEX5        ',  13.8000,2,     0.000,     0.000,   1,   5,0.99500,  18.4357,   1
 10251,'MEX6        ',  13.8000,2,     0.000,     0.000,   1,   5,0.99500,  18.4357,   1
 10252,'MEICHANG    ', 220.0000,1,     0.000,     0.000,   1,   6,1.05545,  13.6594,   1
 10253,'MEICHAN1    ', 110.0000,1,     0.000,     0.000,   1,   6,1.05818,  17.9521,   1
 10254,'MEICHAN0    ', 110.0000,1,     0.000,     0.000,   1,   6,0.99497,  18.7541,   1
 10255,'CHANGSHA    ', 220.0000,1,     0.000,     0.000,   1,   6,1.05103,  12.9383,   1
 10256,'JIAYING     ', 220.0000,1,     0.000,     0.000,   1,   1,1.04997,  13.1797,   1
 10257,'JY1         ', 220.0000,1,     0.000,     0.000,   1,   1,1.01812,  13.1566,   1
 10258,'JY31        ',  34.5000,1,     0.000,   -60.000,   1,   1,0.99361,  13.1751,   1
 10259,'YHC1        ',  20.0000,2,     0.000,     0.000,   1,   5,0.98568,   5.8463,   1
 10260,'YUANHECH    ', 220.0000,1,     0.000,     0.000,   1,   6,1.07655,   2.0398,   1
 10261,'LIANHE      ', 220.0000,1,     0.000,     0.000,   1,   6,1.07303,   1.1011,   1
 10262,'YANGTIAN    ', 220.0000,1,     0.000,     0.000,   1,   6,1.05980,  -2.4840,   1
 10263,'BOLUO       ', 220.0000,1,     0.000,     0.000,   1,   1,1.05936,  -3.8093,   1
 10264,'BL2         ', 220.0000,1,     0.000,     0.000,   1,   1,1.02298,  -3.7806,   1
 10265,'BL3         ', 220.0000,1,     0.000,     0.000,   1,   1,1.02298,  -3.7806,   1
 10266,'BL32        ',  34.5000,1,     0.000,   100.000,   1,   1,1.08646,  -3.8208,   1
 10267,'BL33        ',  34.5000,1,     0.000,   100.000,   1,   1,1.08646,  -3.8208,   1
 10268,'XFJ1        ',  13.8000,2,     0.000,     0.000,   1,   5,1.00000,   6.6703,   1
 10269,'XFJ2        ',  13.8000,2,     0.000,     0.000,   1,   5,1.00000,   5.6632,   1
 10270,'XFJ3        ',  13.8000,2,     0.000,     0.000,   1,   5,1.00000,   5.0884,   1
 10271,'XINFENGA    ', 220.0000,1,     0.000,     0.000,   1,   6,1.06852,   1.1707,   1
 10272,'XINFENGB    ', 220.0000,1,     0.000,     0.000,   1,   6,1.06830,   1.0776,   1
 10273,'HEYUAN      ', 220.0000,1,     0.000,     0.000,   1,   6,1.06810,   1.0279,   1
 10274,'NPS1        ',  26.0000,2,     0.000,     0.000,   1,   3,1.01500,   6.8340,   1
 10275,'SZE         ', 400.0000,1,     0.000,     0.000,   1,   3,1.06914,  -1.9260,   1
 10276,'NPS         ', 400.0000,1,     0.000,     0.000,   1,   3,1.07348,  -0.3359,   1
 10277,'TPE         ', 400.0000,1,     0.000,     0.000,   1,   1,1.06722,  -2.1363,   1
 10278,'YUE         ', 400.0000,1,     0.000,     0.000,   1,   1,1.06716,  -1.9821,   1
 10279,'SHENZHE=    ', 500.0000,1,     0.000,     0.000,   1,   1,1.04703,  -4.0227,   1
 10280,'SHENZHEN    ', 220.0000,1,     0.000,     0.000,   1,   1,1.03791,  -8.1922,   1
 10281,'SZ3         ', 220.0000,1,     0.000,     0.000,   1,   1,0.98940,  -8.1471,   1
 10282,'SZ4         ', 220.0000,1,     0.000,     0.000,   1,   1,0.98940,  -8.1471,   1
 10283,'SZ5         ', 220.0000,1,     0.000,     0.000,   1,   1,0.98949,  -8.1492,   1
 10284,'SZ33        ',  34.5000,1,     0.000,    38.940,   1,   1,1.01199,  -8.1640,   1
 10285,'SZ34        ',  34.5000,1,     0.000,    38.940,   1,   1,1.01199,  -8.1640,   1
 10286,'SZ35        ',  34.5000,1,     0.000,    77.880,   1,   1,1.03573,  -8.1838,   1
 10287,'PENGCHE=    ', 500.0000,1,     0.000,     0.000,   1,   1,1.04427,  -4.4366,   1
 10288,'PENGCHEA    ', 220.0000,1,     0.000,     0.000,   1,   1,1.03797, -11.2914,   1
 10289,'PC1         ', 220.0000,1,     0.000,     0.000,   1,   1,0.99410, -11.2040,   1
 10290,'PC4         ', 220.0000,1,     0.000,     0.000,   1,   1,0.99410, -11.2040,   1
 10291,'PC31        ',  34.5000,1,     0.000,   116.820,   1,   1,1.04463, -11.2434,   1
 10292,'PC34        ',  34.5000,1,     0.000,   116.820,   1,   1,1.04463, -11.2434,   1
 10293,'PENGCHEN    ', 220.0000,1,     0.000,     0.000,   1,   1,1.04882, -10.0472,   1
 10294,'PC2         ', 220.0000,1,     0.000,     0.000,   1,   1,1.00426,  -9.9744,   1
 10295,'PC3         ', 220.0000,1,     0.000,     0.000,   1,   1,1.00426,  -9.9744,   1
 10296,'PC32        ',  34.5000,1,     0.000,   116.820,   1,   1,1.05557, -10.0138,   1
 10297,'PC33        ',  34.5000,1,     0.000,   116.820,   1,   1,1.05542, -10.0138,   1
 10298,'KUNPENG=    ', 500.0000,1,     0.000,     0.000,   1,   1,1.05819,  -3.1800,   1
 10299,'KUNPENG     ', 220.0000,1,     0.000,     0.000,   1,   1,1.03936,  -7.0530,   1
 10300,'KP2         ', 220.0000,1,     0.000,     0.000,   1,   1,1.02151,  -7.0023,   1
 10301,'KP4         ', 220.0000,1,     0.000,     0.000,   1,   1,1.02150,  -7.0026,   1
 10302,'KP32        ',  34.5000,1,     0.000,    58.410,   1,   1,1.04675,  -7.0212,   1
 10303,'KP34        ',  34.5000,1,     0.000,    58.410,   1,   1,1.04667,  -7.0215,   1
 10304,'BAOAN=      ', 500.0000,1,     0.000,     0.000,   1,   1,1.04334,  -4.2943,   1
 10305,'BAOAN       ', 220.0000,1,     0.000,     0.000,   1,   1,1.03043, -11.6484,   1
 10306,'BA2         ', 220.0000,1,     0.000,     0.000,   1,   1,0.98656, -11.5581,   1
 10307,'BA3         ', 220.0000,1,     0.000,     0.000,   1,   1,0.98656, -11.5581,   1
 10308,'BA32        ',  34.5000,1,     0.000,   116.820,   1,   1,1.03753, -11.5968,   1
 10309,'BA33        ',  34.5000,1,     0.000,   116.820,   1,   1,1.03753, -11.5968,   1
 10310,'JINGMAO     ', 220.0000,1,     0.000,     0.000,   1,   7,1.03339,  -8.9315,   1
 10311,'HUANLE      ', 220.0000,1,     0.000,     0.000,   1,   7,1.05723, -10.1018,   1
 10312,'SHUIBEI     ', 220.0000,1,     0.000,     0.000,   1,   7,1.03523,  -8.5181,   1
 10313,'JUNKANG     ', 220.0000,1,     0.000,     0.000,   1,   7,1.05215,  -7.2591,   1
 10314,'TENGFEI     ', 220.0000,1,     0.000,     0.000,   1,   7,1.03688, -12.7746,   1
 10315,'HUANGGAN    ', 220.0000,1,     0.000,     0.000,   1,   7,1.04546, -11.8224,   1
 10316,'BINHE       ', 220.0000,1,     0.000,     0.000,   1,   7,1.04508, -11.8968,   1
 10317,'PINGSHAN    ', 220.0000,1,     0.000,     0.000,   1,   7,1.04249,  -8.1581,   1
 10318,'GONGMINB    ', 220.0000,1,     0.000,     0.000,   1,   7,1.02647, -12.5267,   1
 10319,'HONGTU      ', 220.0000,1,     0.000,     0.000,   1,   7,1.03790,  -8.2946,   1
 10320,'PANGUSHI    ', 220.0000,1,     0.000,     0.000,   1,   7,1.04411,  -7.4521,   1
 10321,'LONGTANG    ', 220.0000,1,     0.000,     0.000,   1,   7,1.04721, -11.0005,   1
 10322,'LILANG      ', 220.0000,1,     0.000,     0.000,   1,   7,1.03541,  -8.5962,   1
 10323,'MAAO        ', 220.0000,1,     0.000,     0.000,   1,   7,1.03162,  -8.1755,   1
 10324,'MEILIN      ', 220.0000,1,     0.000,     0.000,   1,   7,1.04823, -11.2858,   1
 10325,'FEICUI      ', 220.0000,1,     0.000,     0.000,   1,   7,1.05133, -11.0325,   1
 10326,'YUXIN       ', 220.0000,1,     0.000,     0.000,   1,   7,1.03017, -12.3507,   1
 10327,'XIANGHE     ', 220.0000,1,     0.000,     0.000,   1,   7,1.04983, -11.1897,   1
 10328,'WUTONG      ', 220.0000,1,     0.000,     0.000,   1,   7,1.03888,  -9.2403,   1
 10329,'XIANGSHN    ', 220.0000,1,     0.000,     0.000,   1,   7,1.02915, -12.6616,   1
 10330,'JIANLONG    ', 220.0000,1,     0.000,     0.000,   1,   7,1.03898,  -9.0208,   1
 10331,'GONGMING    ', 220.0000,1,     0.000,     0.000,   1,   7,1.02751, -12.8248,   1
 10332,'PINGAN      ', 220.0000,1,     0.000,     0.000,   1,   7,1.03537, -12.2275,   1