0,   100.00          / PSS/E-30.0    SUN, NOV 01 2009  19:53
PSS/E LOADFLOW RAW FILE
CONVERTED FROM BPA FORMAT
 10002,'GZ-HLZ      ', 220.0000,1,     0.000,     0.000,   1,   2,1.04449, -47.3304,   2
 10004,'ZQ-HLZ      ', 525.0000,1,     0.000,     0.000,   1,   4,1.01129, -40.8980,   1
 10005,'DCZQ=       ', 500.0000,1,     0.000,     0.000,   1,   4,1.06106, -41.1848,   2
 10007,'BA-HLZ      ', 525.0000,1,     0.000,     0.000,   1,   4,1.00595, -47.9243,   1
 10011,'DCHZ=       ', 500.0000,1,     0.000,     0.000,   1,   4,1.06735, -44.3588,   2
 10013,'GD01-HLZ    ', 525.0000,1,     0.000,     0.000,   1,   4,1.00289, -46.9425,   2
 10014,'LUODON50    ', 525.0000,1,     0.000,  -492.000,   1,   4,0.99220, -42.9286,   1
 10015,'MAOMIN50    ', 525.0000,1,     0.000,     0.000,   1,   4,0.99371, -31.5102,   1
 10016,'XIANLS50    ', 525.0000,1,     0.000,  -382.000,   1,   4,0.99364, -35.2758,   2
 10022,'GANGCH50    ', 525.0000,1,     0.000,     0.000,   1,   2,1.00286, -31.9848,   2
 10159,'NPS3        ',  26.0000,2,     0.000,     0.000,   1,  19,1.01500, -39.4862,   2
 10160,'NPS4        ',  26.0000,2,     0.000,     0.000,   1,  19,1.01500, -39.4862,   2
 10161,'SJA4        ',  20.0000,2,     0.000,     0.000,   1,  19,1.01500, -40.0958,   2
 10162,'SJA5        ',  20.0000,2,     0.000,     0.000,   1,  19,1.01500, -40.0958,   2
 10163,'SJB1        ',  19.0000,2,     0.000,     0.000,   1,  19,1.01500, -44.0057,   2
 10164,'SJB2        ',  19.0000,2,     0.000,     0.000,   1,  19,1.01500, -40.3850,   2
 10165,'SJC1        ',  19.0000,2,     0.000,     0.000,   1,  19,1.00500, -39.0230,   2
 10166,'SJC2        ',  19.0000,2,     0.000,     0.000,   1,  19,1.00500, -39.0477,   2
 10167,'SJC3        ',  19.0000,2,     0.000,     0.000,   1,  19,1.00500, -39.0230,   2
 10168,'PSS1        ',  18.0000,2,     0.000,     0.000,   1,  19,1.02500, -35.8169,   2
 10169,'PSS2        ',  18.0000,2,     0.000,     0.000,   1,  19,1.02500, -35.8169,   2
 10170,'PSS3        ',  18.0000,2,     0.000,     0.000,   1,  19,1.02500, -35.8169,   2
 10171,'PSS4        ',  18.0000,2,     0.000,     0.000,   1,  19,1.03800, -35.9136,   2
 10172,'PSS6        ',  18.0000,2,     0.000,     0.000,   1,  19,1.02500, -35.9031,   2
 10173,'PSS7        ',  18.0000,2,     0.000,     0.000,   1,  19,1.02500, -35.9031,   2
 10174,'PSS8        ',  18.0000,2,     0.000,     0.000,   1,  19,1.02500, -35.9031,   2
 10175,'HZX2        ',  18.0000,2,     0.000,     0.000,   1,  19,1.03500, -41.0296,   2
 10176,'ZUH3        ',  20.0000,2,     0.000,     0.000,   1,  19,1.00127, -37.3329,   2
 10177,'ZUH4        ',  20.0000,2,     0.000,     0.000,   1,  19,1.00127, -37.3329,   2
 10178,'TOG3        ',  20.0000,2,     0.000,     0.000,   1,  19,1.00000, -35.1255,   2
 10179,'TOG4        ',  20.0000,2,     0.000,     0.000,   1,  19,1.00000, -35.1255,   2
 10180,'TOG5        ',  20.0000,2,     0.000,     0.000,   1,  19,1.00000, -35.1255,   2
 10181,'LYJ1        ',  20.0000,2,     0.000,     0.000,   1,  19,1.00602, -24.2298,   2
 10182,'LYJ2        ',  20.0000,2,     0.000,     0.000,   1,  19,1.00602, -24.2298,   2
 10183,'QIAOK1      ',  22.0000,2,     0.000,     0.000,   1,  19,1.02000, -23.1484,   2
 10184,'QIAOK2      ',  22.0000,2,     0.000,     0.000,   1,  19,1.02053, -23.1518,   2
 10185,'YAX1        ',  20.0000,2,     0.000,     0.000,   1,   2,1.00800, -32.8465,   2
 10186,'HOHW1       ',  22.0000,2,     0.000,     0.000,   1,  19,1.00517, -32.7495,   2
 10187,'HOHW2       ',  22.0000,2,     0.000,     0.000,   1,  19,1.00517, -32.7495,   2
 10188,'HAIM1       ',  27.0000,2,     0.000,     0.000,   1,   2,1.02000, -27.8448,   2
 10189,'HSYB1       ',  20.0000,2,     0.000,     0.000,   1,  19,1.00463, -26.8700,   2
 10190,'HSYB2       ',  20.0000,2,     0.000,     0.000,   1,  19,1.00463, -26.8700,   2
 10192,'LINGAO=     ', 500.0000,1,     0.000,     0.000,   1,   2,1.06085, -46.3928,   2
 10193,'SHAJIAC=    ', 500.0000,1,     0.000,     0.000,   1,   2,1.05733, -46.2313,   2
 10194,'SHAJIAB=    ', 500.0000,1,     0.000,     0.000,   1,   2,1.05745, -46.2641,   2
 10195,'XUNENG1=    ', 500.0000,1,     0.000,     0.000,   1,   2,1.06360, -42.4808,   2
 10196,'XUNENG2=    ', 500.0000,1,     0.000,     0.000,   1,   2,1.06356, -42.5672,   2
 10197,'HZXUNEN=    ', 500.0000,1,     0.000,     0.000,   1,   2,1.06460, -45.2975,   2
 10198,'ZHUHAIB=    ', 500.0000,1,     0.000,     0.000,   1,   2,1.04728, -43.7374,   2
 10199,'TONGGU=     ', 500.0000,1,     0.000,     0.000,   1,   2,1.04732, -41.6088,   2
 10200,'LIYUJIA=    ', 500.0000,1,     0.000,     0.000,   1,   2,1.07022, -29.6353,   2
 10201,'QIAOKOU=    ', 500.0000,1,     0.000,  -123.000,   1,   2,1.06953, -29.6755,   2
 10202,'AOLIYOU=    ', 500.0000,1,     0.000,     0.000,   1,   2,1.05332, -31.9883,   2
 10203,'YANGXI=     ', 500.0000,1,     0.000,     0.000,   1,   2,1.05851, -38.2754,   2
 10204,'HONGHAW=    ', 500.0000,1,     0.000,     0.000,   1,   2,1.06441, -38.3847,   2
 10205,'HAIMEN=     ', 500.0000,1,     0.000,     0.000,   1,   2,1.06734, -33.6336,   2
 10206,'HESHUYB=    ', 500.0000,1,     0.000,     0.000,   1,   2,1.06148, -32.5391,   2
 10207,'ZCT=        ', 500.0000,1,     0.000,     0.000,   1,   2,1.05212, -47.5969,   2
 10208,'ZENGCHE=    ', 500.0000,1,     0.000,     0.000,   1,   2,1.05057, -46.5257,   2
 10209,'GUANGNA=    ', 500.0000,1,     0.000,     0.000,   1,   2,1.05276, -47.7063,   2
 10210,'HUADU=      ', 500.0000,1,     0.000,  -246.000,   1,   2,1.05416, -42.6522,   2
 10211,'DCSUID=     ', 500.0000,1,     0.000,     0.000,   1,   4,1.05304, -46.9425,   2
 10212,'XIANLS=     ', 500.0000,1,     0.000,  -198.000,   1,   2,1.04386, -35.5091,   2
 10213,'LUODONG=    ', 500.0000,1,     0.000,     0.000,   1,   2,1.04321, -43.2912,   2
 10214,'XIJIANG=    ', 500.0000,1,     0.000,     0.000,   1,   2,1.05044, -43.5841,   2
 10215,'SHUNDE=     ', 500.0000,1,     0.000,     0.000,   1,   2,1.04638, -46.2140,   2
 10216,'YANDU=      ', 500.0000,1,     0.000,     0.000,   1,   2,1.06067, -41.3284,   2
 10217,'DGT=        ', 500.0000,1,     0.000,     0.000,   1,   2,1.05905, -45.9403,   2
 10218,'DONGGUA=    ', 500.0000,1,     0.000,     0.000,   1,   2,1.06114, -46.8694,   2
 10219,'HENGLI=     ', 500.0000,1,     0.000,     0.000,   1,   2,1.05720, -46.5400,   2
 10220,'GUANCHE=    ', 500.0000,1,     0.000,     0.000,   1,   2,1.04842, -49.6866,   2
 10221,'HUIZHOU=    ', 500.0000,1,     0.000,     0.000,   1,   2,1.06275, -44.3930,   2
 10222,'BOLUO=      ', 500.0000,1,     0.000,     0.000,   1,   2,1.06563, -44.5948,   2
 10223,'SHANTOU=    ', 500.0000,1,     0.000,     0.000,   1,   2,1.06491, -34.9024,   2
 10224,'MAOHU=      ', 500.0000,1,     0.000,     0.000,   1,   2,1.06508, -39.1452,   2
 10225,'JIAYING=    ', 500.0000,1,     0.000,  -198.000,   1,   2,1.06120, -32.8684,   2
 10226,'RONGJIA=    ', 500.0000,1,     0.000,  -123.000,   1,   2,1.06415, -35.4253,   2
 10227,'QUJIANG=    ', 500.0000,1,     0.000,  -297.000,   1,   2,1.05027, -38.3646,   2
 10228,'JIANGME=    ', 500.0000,1,     0.000,     0.000,   1,   2,1.04752, -44.8454,   2
 10229,'DIELING=    ', 500.0000,1,     0.000,  -198.000,   1,   2,1.05421, -39.3110,   2
 10230,'MAOMING=    ', 500.0000,1,     0.000,  -222.000,   1,   2,1.04405, -31.7362,   2
 10231,'GANGCHE=    ', 500.0000,1,     0.000,     0.000,   1,   2,1.05280, -31.9848,   2
 10232,'XIANGSH=    ', 500.0000,1,     0.000,     0.000,   1,   2,1.04315, -46.0182,   2
 10233,'BEIJIAO=    ', 500.0000,1,     0.000,     0.000,   1,   2,1.05089, -44.2048,   2
 10234,'BEIJIAO     ', 220.0000,1,     0.000,     0.000,   1,   2,1.04428, -47.5044,   2
 10235,'BJ2         ', 220.0000,1,     0.000,     0.000,   1,   2,0.99992, -47.4671,   2
 10236,'BJ3         ', 220.0000,1,     0.000,     0.000,   1,   2,0.99988, -47.4720,   2
 10237,'BJ32        ',  34.5000,1,     0.000,    80.000,   1,   2,1.04799, -47.5094,   2
 10238,'BJ33        ',  34.5000,1,     0.000,    80.000,   1,   2,1.04782, -47.5143,   2
 10239,'ZAY1        ',  20.0000,2,     0.000,     0.000,   1,  20,1.01000, -41.6907,   2
 10240,'ZAY2        ',  20.0000,2,     0.000,     0.000,   1,  20,1.01000, -41.6907,   2
 10241,'ZHAOYANG    ', 220.0000,1,     0.000,     0.000,   1,  21,1.06770, -46.5334,   2
 10242,'QIANFAN     ', 220.0000,1,     0.000,     0.000,   1,  21,1.06696, -46.6251,   2
 10243,'QIUCHANG    ', 220.0000,1,     0.000,     0.000,   1,  21,1.05926, -47.4469,   2
 10244,'HUIZHOU     ', 220.0000,1,     0.000,     0.000,   1,   2,1.05811, -47.3013,   2
 10245,'HZ1         ', 220.0000,1,     0.000,     0.000,   1,   2,1.01284, -47.2713,   2
 10246,'HZ2         ', 220.0000,1,     0.000,     0.000,   1,   2,1.01284, -47.2713,   2
 10247,'HZ31        ',  34.5000,1,     0.000,    40.000,   1,   2,1.03651, -47.2887,   2
 10248,'HZ32        ',  34.5000,1,     0.000,    40.000,   1,   2,1.03651, -47.2887,   2
 10249,'HZ3         ', 220.0000,1,     0.000,     0.000,   1,   2,1.01284, -47.2713,   2
 10250,'HZ33        ',  34.5000,1,     0.000,    40.000,   1,   2,1.03651, -47.2887,   2
 10251,'HUP5        ',  18.0000,2,     0.000,     0.000,   1,  20,1.01500, -48.5806,   2
 10252,'HUP6        ',  18.0000,2,     0.000,     0.000,   1,  20,1.01500, -48.5806,   2
 10253,'HUANGPUB    ', 220.0000,1,     0.000,     0.000,   1,  21,1.05193, -53.8663,   2
 10254,'BISHAN      ', 220.0000,1,     0.000,     0.000,   1,  21,1.03944, -54.9481,   2
 10255,'TANGXIA     ', 220.0000,1,     0.000,     0.000,   1,  21,1.03854, -54.6231,   2
 10256,'ZENGCHEA    ', 220.0000,1,     0.000,     0.000,   1,   2,1.04167, -52.3904,   2
 10257,'ZENGCHEN    ', 220.0000,1,     0.000,     0.000,   1,   2,1.02209, -53.2503,   2
 10258,'ZC1         ', 220.0000,1,     0.000,     0.000,   1,   2,1.01070, -52.3263,   2
 10259,'ZC2         ', 220.0000,1,     0.000,     0.000,   1,   2,0.99201, -53.1820,   2
 10260,'ZC3         ', 220.0000,1,     0.000,     0.000,   1,   2,0.99201, -53.1820,   2
 10261,'ZC31        ',  34.5000,1,     0.000,    80.000,   1,   2,1.05867, -52.3685,   2
 10262,'ZC32        ',  34.5000,1,     0.000,    80.000,   1,   2,1.03910, -53.2243,   2
 10263,'ZC33        ',  34.5000,1,     0.000,    80.000,   1,   2,1.03910, -53.2243,   2
 10264,'ZUJ1        ',  20.0000,2,     0.000,     0.000,   1,  20,1.01000, -42.9099,   2
 10265,'ZUJ2        ',  20.0000,2,     0.000,     0.000,   1,  20,1.01000, -42.9099,   2
 10266,'ZUJ3        ',  20.0000,2,     0.000,     0.000,   1,  20,1.01000, -43.2478,   2
 10267,'ZUJ4        ',  20.0000,2,     0.000,     0.000,   1,  20,1.01000, -43.2478,   2
 10268,'ZHUJIANG    ', 220.0000,1,     0.000,     0.000,   1,  21,1.05873, -49.4498,   2
 10269,'GUANGNAA    ', 220.0000,1,     0.000,     0.000,   1,   2,1.03862, -51.1920,   2
 10270,'GN1         ', 220.0000,1,     0.000,     0.000,   1,   2,1.00785, -51.1483,   2
 10271,'GN31        ',  34.5000,1,     0.000,    60.000,   1,   2,1.03342, -51.1681,   2
 10272,'GUANGNAB    ', 220.0000,1,     0.000,     0.000,   1,   2,1.04250, -53.4421,   2
 10273,'GN3         ', 220.0000,1,     0.000,     0.000,   1,   2,1.01174, -53.3675,   2
 10274,'GN33        ',  34.5000,1,     0.000,    60.000,   1,   2,1.03690, -53.3868,   2
 10275,'GN4         ', 220.0000,1,     0.000,     0.000,   1,   2,1.01174, -53.3675,   2
 10276,'GN34        ',  34.5000,1,     0.000,    60.000,   1,   2,1.03690, -53.3868,   2
 10277,'ZHN1        ',  19.0000,2,     0.000,     0.000,   1,  20,1.00000, -42.9775,   2
 10278,'ZHN2        ',  19.0000,2,     0.000,     0.000,   1,  20,1.00000, -42.9775,   2
 10279,'ZHANNECH    ', 220.0000,1,     0.000,     0.000,   1,  21,1.05628, -49.0406,   2
 10280,'HUQIAO      ', 220.0000,1,     0.000,     0.000,   1,  21,1.05400, -49.3815,   2
 10281,'PANYU       ', 220.0000,1,     0.000,     0.000,   1,  21,1.03939, -51.1884,   2
 10282,'HEY8        ',  20.0000,2,     0.000,     0.000,   1,  20,0.99766, -46.9065,   2
 10283,'HEY9        ',  20.0000,2,     0.000,     0.000,   1,  20,1.00000, -46.9212,   2
 10284,'HENGYUND    ', 220.0000,1,     0.000,     0.000,   1,  21,1.03907, -52.2526,   2
 10285,'KAIYUANB    ', 220.0000,1,     0.000,     0.000,   1,  21,1.03517, -52.5787,   2
 10286,'HUAPU       ', 220.0000,1,     0.000,     0.000,   1,  21,1.02363, -53.4368,   2
 10287,'DES1        ',  20.0000,2,     0.000,     0.000,   1,  20,0.99099, -46.1671,   2
 10288,'DES2        ',  20.0000,2,     0.000,     0.000,   1,  20,0.99099, -46.1671,   2
 10289,'DESHENG     ', 220.0000,1,     0.000,     0.000,   1,  21,1.03531, -51.6534,   2
 10290,'XUSHENG     ', 220.0000,1,     0.000,     0.000,   1,  21,1.03256, -51.9184,   2
 10291,'SHUNDE      ', 220.0000,1,     0.000,     0.000,   1,   2,1.03032, -51.3195,   2
 10292,'SD2         ', 220.0000,1,     0.000,     0.000,   1,   2,1.00007, -51.2625,   2
 10293,'SD3         ', 220.0000,1,     0.000,     0.000,   1,   2,1.00007, -51.2624,   2
 10294,'SD32        ',  34.5000,1,     0.000,    50.000,   1,   2,1.01996, -51.2786,   2
 10295,'SD33        ',  34.5000,1,     0.000,    50.000,   1,   2,1.02002, -51.2785,   2
 10296,'HEM3        ',  19.0000,2,     0.000,     0.000,   1,  20,0.96869, -48.7968,   2
 10297,'HENGMENB    ', 220.0000,1,     0.000,     0.000,   1,  21,1.01612, -54.1825,   2
 10298,'QILE        ', 220.0000,1,     0.000,     0.000,   1,  21,1.00454, -55.3946,   2
 10299,'XIANGSHB    ', 220.0000,1,     0.000,     0.000,   1,   2,1.01467, -53.7004,   2
 10300,'XIANGSHA    ', 220.0000,1,     0.000,     0.000,   1,   2,1.02675, -53.4476,   2
 10301,'XS1         ', 220.0000,1,     0.000,     0.000,   1,   2,0.98349, -53.3521,   2
 10302,'XS2         ', 220.0000,1,     0.000,     0.000,   1,   2,0.97210, -53.6038,   2
 10303,'XS3         ', 220.0000,1,     0.000,     0.000,   1,   2,0.97208, -53.6062,   2
 10304,'XS31        ',  34.5000,1,     0.000,   100.000,   1,   2,1.02586, -53.3850,   2
 10305,'XS32        ',  34.5000,1,     0.000,   100.000,   1,   2,1.01388, -53.6366,   2
 10306,'XS33        ',  34.5000,1,     0.000,   100.000,   1,   2,1.01365, -53.6390,   2
 10307,'ZUH1        ',  22.0000,2,     0.000,     0.000,   1,  20,0.98000, -46.2991,   2
 10308,'ZUH2        ',  22.0000,2,     0.000,     0.000,   1,  20,0.98000, -46.2991,   2
 10309,'ZHUCHANG    ', 220.0000,1,     0.000,     0.000,   1,  21,1.01714, -53.5462,   2
 10310,'DOUMEN      ', 220.0000,1,     0.000,     0.000,   1,  21,0.99454, -56.1141,   2
 10311,'SANXIANG    ', 220.0000,1,     0.000,     0.000,   1,  21,0.98575, -57.2858,   2
 10312,'TOG1        ',  20.0000,2,     0.000,     0.000,   1,  20,1.00000, -35.6073,   2
 10313,'TOG2        ',  20.0000,2,     0.000,     0.000,   1,  20,1.00000, -35.6073,   2
 10314,'TONGGUCH    ', 220.0000,1,     0.000,     0.000,   1,  21,1.05990, -42.0575,   2
 10315,'NENGDA      ', 220.0000,1,     0.000,     0.000,   1,  21,1.02711, -47.4872,   2
 10316,'XINHUI      ', 220.0000,1,     0.000,     0.000,   1,  21,1.01610, -49.3077,   2
 10317,'JIANGMEN    ', 220.0000,1,     0.000,     0.000,   1,   2,1.01697, -49.2269,   2
 10318,'JM1         ', 220.0000,1,     0.000,     0.000,   1,   2,1.02477, -49.1960,   2
 10319,'JM2         ', 220.0000,1,     0.000,     0.000,   1,   2,1.02477, -49.1960,   2
 10320,'JM31        ',  34.5000,1,     0.000,    80.000,   1,   2,1.07867, -49.2385,   2
 10321,'JM32        ',  34.5000,1,     0.000,    80.000,   1,   2,1.07867, -49.2385,   2
 10322,'SAG10       ',  20.0000,2,     0.000,     0.000,   1,  20,1.00517, -35.8685,   2
 10323,'SAG11       ',  20.0000,2,     0.000,     0.000,   1,  20,1.00517, -35.8685,   2
 10324,'SHAOB       ', 220.0000,1,     0.000,     0.000,   1,  21,1.07057, -41.0451,   2
 10325,'QUJIANG     ', 220.0000,1,     0.000,     0.000,   1,   2,1.06864, -41.2698,   2
 10326,'QJ1         ', 220.0000,1,     0.000,     0.000,   1,   2,0.99663, -41.2348,   2
 10327,'QJ2         ', 220.0000,1,     0.000,     0.000,   1,   2,0.99646, -41.2352,   2
 10328,'QJ31        ',  34.5000,1,     0.000,     0.000,   1,   2,0.99663, -41.2348,   2
 10329,'QJ32        ',  34.5000,1,     0.000,     0.000,   1,   2,0.99646, -41.2352,   2
 10330,'YUL1        ',  13.8000,2,     0.000,     0.000,   1,  20,0.99000, -33.3942,   2
 10331,'YUL2        ',  13.8000,2,     0.000,     0.000,   1,  20,0.99000, -33.3942,   2
 10332,'YUELIAN     ', 220.0000,1,     0.000,     0.000,   1,  21,1.07375, -39.0558,   2
 10333,'XIANLS      ', 220.0000,1,     0.000,     0.000,   1,   2,1.07667, -39.2315,   2
 10334,'XLS2        ', 220.0000,1,     0.000,     0.000,   1,   2,1.04125, -39.1973,   2
 10335,'XLS32       ',  34.5000,1,     0.000,   180.000,   1,   2,1.16232, -39.3780,   2
 10336,'LUOY3       ',  13.8000,2,     0.000,     0.000,   1,  20,1.00000, -38.5779,   2
 10337,'LUOCHANG    ', 220.0000,1,     0.000,     0.000,   1,  21,1.06170, -43.5636,   2
 10338,'ANFENG      ', 220.0000,1,     0.000,     0.000,   1,  21,1.06567, -41.2584,   2
 10339,'MAM5        ',  15.8000,2,     0.000,     0.000,   1,  20,0.97000, -26.9747,   2
 10340,'MAM6        ',  20.0000,2,     0.000,     0.000,   1,  20,0.97000, -27.0064,   2
 10341,'MAOCHANG    ', 220.0000,1,     0.000,     0.000,   1,  21,1.03126, -33.2641,   2
 10342,'DIELING     ', 220.0000,1,     0.000,     0.000,   1,   2,1.03083, -41.5914,   2
 10343,'DL2         ', 220.0000,1,     0.000,     0.000,   1,   2,0.99960, -41.5677,   2
 10344,'DL32        ',  34.5000,1,     0.000,     0.000,   1,   2,0.99960, -41.5677,   2
 10345,'DL3         ', 220.0000,1,     0.000,     0.000,   1,   2,0.99960, -41.5677,   2
 10346,'DL33        ',  34.5000,1,     0.000,     0.000,   1,   2,0.99960, -41.5677,   2
 10347,'ZAJ1        ',  20.0000,2,     0.000,     0.000,   1,  20,0.98000, -26.1793,   2
 10348,'ZAJ2        ',  20.0000,2,     0.000,     0.000,   1,  20,0.98000, -26.1793,   2
 10349,'ZAJ3        ',  20.0000,2,     0.000,     0.000,   1,  20,0.98000, -26.1793,   2
 10350,'ZAJ4        ',  20.0000,2,     0.000,     0.000,   1,  20,0.98000, -26.1793,   2
 10351,'ZHANJIAN    ', 220.0000,1,     0.000,     0.000,   1,  21,1.03371, -31.7142,   2
 10352,'CHIKAN      ', 220.0000,1,     0.000,     0.000,   1,  21,1.03047, -32.2984,   2
 10353,'SHENBEI     ', 220.0000,1,     0.000,     0.000,   1,  21,1.02715, -32.8801,   2
 10354,'GANGCHEN    ', 220.0000,1,     0.000,     0.000,   1,   2,1.02608, -33.1025,   2
 10355,'GH2         ', 220.0000,1,     0.000,     0.000,   1,   2,0.99500, -33.0917,   2
 10356,'GH32        ',  34.5000,1,     0.000,     0.000,   1,   2,0.99500, -33.0917,   2
 10357,'YUF1        ',  13.8000,2,     0.000,     0.000,   1,  20,0.97569, -45.4528,   2
 10358,'YUF2        ',  13.8000,2,     0.000,     0.000,   1,  20,0.97569, -45.4528,   2
 10359,'YUNFU       ', 220.0000,1,     0.000,     0.000,   1,  21,1.03770, -48.6731,   2
 10360,'YUNFU1      ', 110.0000,1,     0.000,     0.000,   1,  21,1.02720, -46.6124,   2
 10361,'YUNFU2      ', 110.0000,1,     0.000,     0.000,   1,  21,0.97443, -45.4326,   2
 10362,'YUNFU3      ', 110.0000,1,     0.000,     0.000,   1,  21,1.02720, -46.6124,   2
 10363,'YUNFU4      ', 110.0000,1,     0.000,     0.000,   1,  21,0.97443, -45.4326,   2
 10364,'ZHUSHAN     ', 220.0000,1,     0.000,     0.000,   1,  21,1.02879, -48.6343,   2
 10365,'YANDU       ', 220.0000,1,     0.000,     0.000,   1,   2,1.03080, -47.8163,   2
 10366,'YD2         ', 220.0000,1,     0.000,     0.000,   1,   2,0.99989, -47.7480,   2
 10367,'YD3         ', 220.0000,1,     0.000,     0.000,   1,   2,0.99989, -47.7480,   2
 10368,'YD32        ',  34.5000,1,     0.000,     0.000,   1,   2,0.99989, -47.7480,   2
 10369,'YD33        ',  34.5000,1,     0.000,     0.000,   1,   2,0.99989, -47.7480,   2
 10370,'SAT1        ',  20.0000,2,     0.000,     0.000,   1,  20,1.00000, -29.7534,   2
 10371,'SAT2        ',  20.0000,2,     0.000,     0.000,   1,  20,1.00000, -29.7534,   2
 10372,'SAT3        ',  20.0000,2,     0.000,     0.000,   1,  20,1.00000, -28.1850,   2
 10373,'SHANCHAN    ', 220.0000,1,     0.000,     0.000,   1,  21,1.05833, -34.2953,   2
 10374,'GUANDI      ', 220.0000,1,     0.000,     0.000,   1,  21,1.04278, -35.6450,   2
 10375,'HONGLIAN    ', 220.0000,1,     0.000,     0.000,   1,  21,1.03868, -35.9490,   2
 10376,'SHANTOU     ', 220.0000,1,     0.000,     0.000,   1,   2,1.03500, -36.1571,   2
 10377,'ST1         ', 220.0000,1,     0.000,     0.000,   1,   2,1.00365, -36.1442,   2
 10378,'ST2         ', 220.0000,1,     0.000,     0.000,   1,   2,1.00371, -36.1437,   2
 10379,'ST3         ', 220.0000,1,     0.000,     0.000,   1,   2,1.00363, -36.1441,   2
 10380,'ST31        ',  34.5000,1,     0.000,   -45.000,   1,   2,0.97833, -36.1254,   2
 10381,'ST32        ',  34.5000,1,     0.000,   -45.000,   1,   2,0.97935, -36.1161,   2
 10382,'ST33        ',  34.5000,1,     0.000,   -45.000,   1,   2,0.97840, -36.1253,   2
 10383,'ZEL1        ',  20.0000,2,     0.000,     0.000,   1,  20,1.00000, -25.9636,   2
 10384,'ZEL2        ',  20.0000,2,     0.000,     0.000,   1,  20,1.00000, -25.9636,   2
 10385,'ZHELINCH    ', 220.0000,1,     0.000,     0.000,   1,  21,1.06131, -32.1217,   2
 10386,'RAOPING     ', 220.0000,1,     0.000,     0.000,   1,  21,1.04577, -34.4128,   2
 10387,'CHAOZHOU    ', 220.0000,1,     0.000,     0.000,   1,  21,1.02901, -36.7062,   2
 10388,'JINSHA      ', 220.0000,1,     0.000,     0.000,   1,  21,1.03226, -36.4247,   2
 10389,'JIH1        ',  22.0000,2,     0.000,     0.000,   1,  20,1.00000, -26.5939,   2
 10390,'JIH2        ',  22.0000,2,     0.000,     0.000,   1,  20,1.00000, -26.5939,   2
 10391,'JINGHACH    ', 220.0000,1,     0.000,     0.000,   1,  21,1.06151, -32.5569,   2
 10392,'LIANGYIN    ', 220.0000,1,     0.000,     0.000,   1,  21,1.04300, -35.3815,   2
 10393,'GURAO       ', 220.0000,1,     0.000,     0.000,   1,  21,1.03511, -36.1903,   2
 10394,'MEX3        ',  13.8000,2,     0.000,     0.000,   1,  20,0.99500, -25.1440,   2
 10395,'MEX4        ',  13.8000,2,     0.000,     0.000,   1,  20,0.99500, -25.0495,   2
 10396,'MEX5        ',  13.8000,2,     0.000,     0.000,   1,  20,0.99500, -25.4724,   2
 10397,'MEX6        ',  13.8000,2,     0.000,     0.000,   1,  20,0.99500, -25.4724,   2
 10398,'MEICHANG    ', 220.0000,1,     0.000,     0.000,   1,  21,1.05588, -30.2472,   2
 10399,'MEICHAN1    ', 110.0000,1,     0.000,     0.000,   1,  21,1.05818, -25.9565,   2
 10400,'MEICHAN0    ', 110.0000,1,     0.000,     0.000,   1,  21,0.99497, -25.1546,   2
 10401,'CHANGSHA    ', 220.0000,1,     0.000,     0.000,   1,  21,1.05164, -30.9695,   2
 10402,'JIAYING     ', 220.0000,1,     0.000,     0.000,   1,   2,1.05067, -30.7291,   2
 10403,'JY1         ', 220.0000,1,     0.000,     0.000,   1,   2,1.01879, -30.7522,   2
 10404,'JY31        ',  34.5000,1,     0.000,   -60.000,   1,   2,0.99427, -30.7337,   2
 10405,'YHC1        ',  20.0000,2,     0.000,     0.000,   1,  20,0.98682, -38.0220,   2
 10406,'YUANHECH    ', 220.0000,1,     0.000,     0.000,   1,  21,1.07781, -41.8197,   2
 10407,'LIANHE      ', 220.0000,1,     0.000,     0.000,   1,  21,1.07429, -42.7562,   2
 10408,'YANGTIAN    ', 220.0000,1,     0.000,     0.000,   1,  21,1.06160, -46.3369,   2
 10409,'BOLUO       ', 220.0000,1,     0.000,     0.000,   1,   2,1.06143, -47.6594,   2
 10410,'BL2         ', 220.0000,1,     0.000,     0.000,   1,   2,1.02498, -47.6308,   2
 10411,'BL3         ', 220.0000,1,     0.000,     0.000,   1,   2,1.02498, -47.6308,   2
 10412,'BL32        ',  34.5000,1,     0.000,   100.000,   1,   2,1.08859, -47.6709,   2
 10413,'BL33        ',  34.5000,1,     0.000,   100.000,   1,   2,1.08859, -47.6709,   2
 10414,'XFJ1        ',  13.8000,2,     0.000,     0.000,   1,  20,1.00000, -37.1891,   2
 10415,'XFJ2        ',  13.8000,2,     0.000,     0.000,   1,  20,1.00000, -38.1942,   2
 10416,'XFJ3        ',  13.8000,2,     0.000,     0.000,   1,  20,1.00000, -38.7691,   2
 10417,'XINFENGA    ', 220.0000,1,     0.000,     0.000,   1,  21,1.06957, -42.6844,   2
 10418,'XINFENGB    ', 220.0000,1,     0.000,     0.000,   1,  21,1.06936, -42.7774,   2
 10419,'HEYUAN      ', 220.0000,1,     0.000,     0.000,   1,  21,1.06918, -42.8271,   2
 10535,'SHENZHE=    ', 500.0000,1,     0.000,     0.000,   1,   2,1.05495, -47.9096,   2
 10536,'SHENZHEN    ', 220.0000,1,     0.000,     0.000,   1,   2,1.04577, -52.0163,   2
 10537,'SZ3         ', 220.0000,1,     0.000,     0.000,   1,   2,0.99688, -51.9720,   2
 10538,'SZ4         ', 220.0000,1,     0.000,     0.000,   1,   2,0.99688, -51.9720,   2
 10539,'SZ5         ', 220.0000,1,     0.000,     0.000,   1,   2,0.99698, -51.9742,   2
 10540,'SZ33        ',  34.5000,1,     0.000,    40.000,   1,   2,1.02028, -51.9894,   2
 10541,'SZ34        ',  34.5000,1,     0.000,    40.000,   1,   2,1.02028, -51.9894,   2
 10542,'SZ35        ',  34.5000,1,     0.000,    80.000,   1,   2,1.04490, -52.0097,   2
 10543,'PENGCHE=    ', 500.0000,1,     0.000,     0.000,   1,   2,1.05475, -48.3392,   2
 10544,'PENGCHEA    ', 220.0000,1,     0.000,     0.000,   1,   2,1.04936, -55.0557,   2
 10545,'PC1         ', 220.0000,1,     0.000,     0.000,   1,   2,1.00499, -54.9702,   2
 10546,'PC4         ', 220.0000,1,     0.000,     0.000,   1,   2,1.00499, -54.9702,   2
 10547,'PC31        ',  34.5000,1,     0.000,   120.000,   1,   2,1.05754, -55.0107,   2
 10548,'PC34        ',  34.5000,1,     0.000,   120.000,   1,   2,1.05754, -55.0107,   2
 10549,'PENGCHEN    ', 220.0000,1,     0.000,     0.000,   1,   2,1.05608, -53.8317,   2
 10550,'PC2         ', 220.0000,1,     0.000,     0.000,   1,   2,1.01126, -53.7615,   2
 10551,'PC3         ', 220.0000,1,     0.000,     0.000,   1,   2,1.01126, -53.7615,   2
 10552,'PC32        ',  34.5000,1,     0.000,   120.000,   1,   2,1.06441, -53.8020,   2
 10553,'PC33        ',  34.5000,1,     0.000,   120.000,   1,   2,1.06426, -53.8020,   2
 10554,'KUNPENG=    ', 500.0000,1,     0.000,     0.000,   1,   2,1.06199, -47.0499,   2
 10555,'KUNPENG     ', 220.0000,1,     0.000,     0.000,   1,   2,1.04227, -50.8974,   2
 10556,'KP2         ', 220.0000,1,     0.000,     0.000,   1,   2,1.02438, -50.8473,   2
 10557,'KP4         ', 220.0000,1,     0.000,     0.000,   1,   2,1.02438, -50.8476,   2
 10558,'KP32        ',  34.5000,1,     0.000,    60.000,   1,   2,1.05040, -50.8667,   2
 10559,'KP34        ',  34.5000,1,     0.000,    60.000,   1,   2,1.05032, -50.8670,   2
 10560,'BAOAN=      ', 500.0000,1,     0.000,     0.000,   1,   2,1.05549, -48.2102,   2
 10561,'BAOAN       ', 220.0000,1,     0.000,     0.000,   1,   2,1.04265, -55.4058,   2
 10562,'BA2         ', 220.0000,1,     0.000,     0.000,   1,   2,0.99825, -55.3178,   2
 10563,'BA3         ', 220.0000,1,     0.000,     0.000,   1,   2,0.99825, -55.3178,   2
 10564,'BA32        ',  34.5000,1,     0.000,   120.000,   1,   2,1.05130, -55.3576,   2
 10565,'BA33        ',  34.5000,1,     0.000,   120.000,   1,   2,1.05130, -55.3576,   2
 10566,'JINGMAO     ', 220.0000,1,     0.000,     0.000,   1,  31,1.04134, -52.7451,   2
 10567,'HUANLE      ', 220.0000,1,     0.000,     0.000,   1,  31,1.06202, -53.8491,   2
 10568,'SHUIBEI     ', 220.0000,1,     0.000,     0.000,   1,  31,1.04313, -52.3375,   2
 10569,'JUNKANG     ', 220.0000,1,     0.000,     0.000,   1,  31,1.05430, -51.0965,   2
 10570,'TENGFEI     ', 220.0000,1,     0.000,     0.000,   1,  31,1.04803, -56.5057,   2
 10571,'HUANGGAN    ', 220.0000,1,     0.000,     0.000,   1,  31,1.05078, -55.5675,   2
 10572,'BINHE       ', 220.0000,1,     0.000,     0.000,   1,  31,1.05041, -55.6411,   2
 10573,'PINGSHAN    ', 220.0000,1,     0.000,     0.000,   1,  31,1.04486, -51.9924,   2
 10574,'GONGMINB    ', 220.0000,1,     0.000,     0.000,   1,  31,1.03894, -56.2640,   2
 10575,'HONGTU      ', 220.0000,1,     0.000,     0.000,   1,  31,1.04059, -52.1329,   2
 10576,'PANGUSHI    ', 220.0000,1,     0.000,     0.000,   1,  31,1.04666, -51.2917,   2
 10577,'LONGTANG    ', 220.0000,1,     0.000,     0.000,   1,  31,1.05303, -54.7593,   2
 10578,'LILANG      ', 220.0000,1,     0.000,     0.000,   1,  31,1.04308, -52.4134,   2
 10579,'MAAO        ', 220.0000,1,     0.000,     0.000,   1,  31,1.03457, -52.0136,   2
 10580,'MEILIN      ', 220.0000,1,     0.000,     0.000,   1,  31,1.05351, -55.0361,   2
 10581,'FEICUI      ', 220.0000,1,     0.000,     0.000,   1,  31,1.05630, -54.7809,   2
 10582,'YUXIN       ', 220.0000,1,     0.000,     0.000,   1,  31,1.04161, -56.0929,   2
 10583,'XIANGHE     ', 220.0000,1,     0.000,     0.000,   1,  31,1.05494, -54.9391,   2
 10584,'WUTONG      ', 220.0000,1,     0.000,     0.000,   1,  31,1.04120, -53.0692,   2
 10585,'XIANGSHN    ', 220.0000,1,     0.000,     0.000,   1,  31,1.04017, -56.3965,   2
 10586,'JIANLONG    ', 220.0000,1,     0.000,     0.000,   1,  31,1.04128, -52.8506,   2
 10587,'GONGMING    ', 220.0000,1,     0.000,     0.000,   1,  31,1.03876, -56.5570,   2
 10588,'PINGAN      ', 220.0000,1,     0.000,     0.000,   1,  31,1.04475, -55.9647,   2
 10589,'JIHAI       ', 220.0000,1,     0.000,     0.000,   1,  31,1.04957, -55.8577,   2
 10590,'DONGHU      ', 220.0000,1,     0.000,     0.000,   1,  31,1.04200, -52.6492,   2
 10591,'XIXIANG     ', 220.0000,1,     0.000,     0.000,   1,  31,1.05392, -54.8216,   2
 10592,'ZHONGHA     ', 220.0000,1,     0.000,     0.000,   1,  31,1.04918, -56.1504,   2
 10593,'FENJIN      ', 220.0000,1,     0.000,     0.000,   1,  31,1.02941, -57.6840,   2
 10594,'JIAAN       ', 220.0000,1,     0.000,     0.000,   1,  31,1.05606, -54.5287,   2
 10595,'QINGSHA     ', 220.0000,1,     0.000,     0.000,   1,  31,1.04954, -55.9242,   2
 10596,'MAW1        ',  20.0000,2,     0.000,     0.000,   1,  20,1.01500, -47.2033,   2