     PTI INTERACTIVE POWER SYSTEM SIMULATOR--PSS/E      MON, NOV 02 2009  22:38
PSS/E LOADFLOW RAW FILE                                                 AREA
CONVERTED FROM BPA FORMAT                                           INTERCHANGE

      TO AREA:     1     2     3     4     5     6     7
FROM AREA    *------------------------------------------
        1    *        -950 -7804
GD           *         147   468
             *------------------------------------------
        2    *   950
HK           *  -147
             *------------------------------------------
        3    *  7804                         -6501 -3300
GX           *  -468                            46  -393
             *------------------------------------------
        4    *                                1800
GZ           *                                -389
             *------------------------------------------
        5    *                                4400
YN           *                                -718
             *------------------------------------------
        6    *              6501 -1800 -4400
TSQ          *               -46   389   718
             *------------------------------------------
        7    *              3300
LT           *               393
             *------------------------------------------