     PTI INTERACTIVE POWER SYSTEM SIMULATOR--PSS/E      MON, NOV 02 2009  22:35
PSS/E LOADFLOW RAW FILE                                                  RATING
CONVERTED FROM BPA FORMAT                                                 SET A

BUS  10002 GZ-HLZ      220.00 CKT     MW     MVAR     MVA  %I 1.0445PU  -47.34  X--- LOSSES ---X X---- AREA -----X X---- ZONE -----X  10002
                                                              229.79KV               MW     MVAR    1 GD              2 XX
BUS      1 UNO-U1      13.800 CKT     MW     MVAR     MVA  %I 1.0000PU    0.00  X--- LOSSES ---X X---- AREA -----X X---- ZONE -----X      1
                                                              13.800KV               MW     MVAR    1                 0   

 TO LOAD-PQ                       -1656.4  -114.9  1660.4
 TO  10234 BEIJIAO     220.00  1   1656.4   114.9  1660.4     1.0000LK              0.00    5.05    1 GD              2 XX

BUS  10004 ZQ-HLZ      525.00 CKT     MW     MVAR     MVA  %I 1.0113PU  -40.91  X--- LOSSES ---X X---- AREA -----X X---- ZONE -----X  10004
                                                              530.92KV               MW     MVAR    1 GD              4 N2
 TO LOAD-PQ                       -2820.0  -429.6  2852.5
 TO  10005 DCZQ=       500.00  1   2820.0   429.6  2852.5     0.9524UN              0.00   14.43    1 GD              4 N2

BUS  10005 DCZQ=       500.00 CKT     MW     MVAR     MVA  %I 1.0611PU  -41.19  X--- LOSSES ---X X---- AREA -----X X---- ZONE -----X  10005
                                                              530.53KV               MW     MVAR    1 GD              4 N2
 TO  10004 ZQ-HLZ      525.00  1  -2820.0  -415.2  2850.4     1.0000LK              0.00   14.43    1 GD              4 N2
 TO  10216 YANDU=      500.00  1   1410.0   207.6  1425.2  27                       0.00    3.61    1 GD              2 XX
 TO  10216 YANDU=      500.00  2   1410.0   207.6  1425.2  27                       0.00    3.61    1 GD              2 XX

BUS  10007 BA-HLZ      525.00 CKT     MW     MVAR     MVA  %I 1.0059PU  -47.93  X--- LOSSES ---X X---- AREA -----X X---- ZONE -----X  10007
                                                              528.12KV               MW     MVAR    1 GD              4 N2
 TO LOAD-PQ                       -2781.3  -408.8  2811.2
 TO  10560 BAOAN=      500.00  1   2781.3   408.8  2811.2     0.9524LK              0.00   14.17    1 GD              2 XX

BUS  10011 DCHZ=       500.00 CKT     MW     MVAR     MVA  %I 1.0673PU  -44.37  X--- LOSSES ---X X---- AREA -----X X---- ZONE -----X  10011
                                                              533.67KV               MW     MVAR    1 GD              4 N2
 TO  10222 BOLUO=      500.00  1   1589.5    81.9  1591.6  30                       2.22    6.67    1 GD              2 XX
 TO  10222 BOLUO=      500.00  2   1210.5   155.7  1220.5  23                       1.31    5.23    1 GD              2 XX
 TO  80010 HUIZ-HLZ    525.00  1  -2800.0  -237.6  2810.1     1.0000UN              0.00   13.86    1 GD              4 N2

BUS  10013 GD01-HLZ    525.00 CKT     MW     MVAR     MVA  %I 1.0029PU  -46.95  X--- LOSSES ---X X---- AREA -----X X---- ZONE -----X  10013
                                                              526.52KV               MW     MVAR    1 GD              4 N2
 TO  10211 DCSUID=     500.00  1      0.0     0.0     0.0     0.9524UN              0.00    0.00    1 GD              4 N2
 TO  10211 DCSUID=     500.00  2      0.0     0.0     0.0     0.9524UN              0.00    0.00    1 GD              4 N2
 TO  10211 DCSUID=     500.00  3      0.0     0.0     0.0     0.9524UN              0.00    0.00    1 GD              4 N2

BUS  10014 LUODON50    525.00 CKT     MW     MVAR     MVA  %I 0.9922PU  -42.94  X--- LOSSES ---X X---- AREA -----X X---- ZONE -----X  10014
                                                              520.90KV               MW     MVAR    1 GD              4 N2
 TO SHUNT                             0.0   484.3   484.3
 TO  10213 LUODONG=    500.00  1   3438.4  -717.2  3512.4     0.9524LK              0.00   22.73    1 GD              2 XX
 TO  30072 WUZHO50     525.00  1   -910.8    86.9   915.0  40                      18.49  199.82    3 GX             12 N1
 TO  30072 WUZHO50     525.00  2   -910.8    77.9   914.2  40                      18.49  199.82    3 GX             12 N1
 TO  30089 HEZHOU50    525.00  1   -808.4    34.0   809.1  30                      14.59  204.23    3 GX             12 N1
 TO  30089 HEZHOU50    525.00  2   -808.4    34.0   809.1  30                      14.59  204.23    3 GX             12 N1

BUS  10015 MAOMIN50    525.00 CKT     MW     MVAR     MVA  %I 0.9937PU  -31.52  X--- LOSSES ---X X---- AREA -----X X---- ZONE -----X  10015
                                                              521.69KV               MW     MVAR    1 GD              4 N2
 TO  10230 MAOMING=    500.00  1   2148.6  -333.6  2174.4     0.9524LK              0.00    8.69    1 GD              2 XX
 TO  30082 YULIN50     525.00  1  -1074.3   166.8  1087.2  40                      15.92  173.84    3 GX             12 N1
 TO  30082 YULIN50     525.00  2  -1074.3   166.8  1087.2  40                      15.92  173.84    3 GX             12 N1

BUS  10016 XIANLS50    525.00 CKT     MW     MVAR     MVA  %I 0.9936PU  -35.28  X--- LOSSES ---X X---- AREA -----X X---- ZONE -----X  10016
                                                              521.65KV               MW     MVAR    1 GD              4 N2
 TO SHUNT                             0.0   377.1   377.1
 TO  10212 XIANLS=     500.00  1   2217.1  -279.0  2234.6     0.9524LK              0.00    9.18    1 GD              2 XX
 TO  30097 GUILIN52    525.00  1  -1108.6   -49.1  1109.7  32                      24.28  305.36    3 GX             12 N1
 TO  30097 GUILIN52    525.00  2  -1108.6   -49.1  1109.7  32                      24.28  305.36    3 GX             12 N1
     PTI INTERACTIVE POWER SYSTEM SIMULATOR--PSS/E      MON, NOV 02 2009  22:35
PSS/E LOADFLOW RAW FILE                                                  RATING
CONVERTED FROM BPA FORMAT                                                 SET A

BUS  10022 GANGCH50    525.00 CKT     MW     MVAR     MVA  %I 1.0028PU  -31.99  X--- LOSSES ---X X---- AREA -----X X---- ZONE -----X  10022
                                                              526.50KV               MW     MVAR    1 GD              2 XX
 TO LOAD-PQ                           0.0  -104.0   104.0
 TO  10231 GANGCHE=    500.00  1      0.0   104.0   104.0     0.9524LK              0.00    0.02    1 GD              2 XX

BUS  10159 NPS3        26.000 CKT     MW     MVAR     MVA  %I 1.0150PU  -39.49  X--- LOSSES ---X X---- AREA -----X X---- ZONE -----X  10159
 FROM GENERATION                    980.0   104.6R  985.6 986 26.390KV               MW     MVAR    1 GD             19 50
 TO LOAD-PQ                          35.0    20.0    40.3
 TO  10192 LINGAO=     500.00  1    945.0    84.6   948.8  82 1.0000LK              1.05  114.11    1 GD              2 XX

BUS  10160 NPS4        26.000 CKT     MW     MVAR     MVA  %I 1.0150PU  -39.49  X--- LOSSES ---X X---- AREA -----X X---- ZONE -----X  10160
 FROM GENERATION                    980.0   104.6R  985.6 986 26.390KV               MW     MVAR    1 GD             19 50
 TO LOAD-PQ                          35.0    20.0    40.3
 TO  10192 LINGAO=     500.00  1    945.0    84.6   948.8  82 1.0000LK              1.05  114.11    1 GD              2 XX

BUS  10161 SJA4        20.000 CKT     MW     MVAR     MVA  %I 1.0150PU  -40.10  X--- LOSSES ---X X---- AREA -----X X---- ZONE -----X  10161
 FROM GENERATION                    300.0    44.5R  303.3 303 20.300KV               MW     MVAR    1 GD             19 50
 TO LOAD-PQ                          15.0     8.0    17.0
 TO  10193 SHAJIAC=    500.00  1    285.0    36.5   287.3  79 1.0000LK              0.00   30.72    1 GD              2 XX

BUS  10162 SJA5        20.000 CKT     MW     MVAR     MVA  %I 1.0150PU  -40.10  X--- LOSSES ---X X---- AREA -----X X---- ZONE -----X  10162
 FROM GENERATION                    300.0    44.5R  303.3 303 20.300KV               MW     MVAR    1 GD             19 50
 TO LOAD-PQ                          15.0     8.0    17.0
 TO  10193 SHAJIAC=    500.00  1    285.0    36.5   287.3  79 1.0000LK              0.00   30.72    1 GD              2 XX

BUS  10163 SJB1        19.000 CKT     MW     MVAR     MVA  %I 1.0150PU  -44.01  X--- LOSSES ---X X---- AREA -----X X---- ZONE -----X  10163
 FROM GENERATION                    125.2    66.3R  141.7 142 19.285KV               MW     MVAR    1 GD             19 50
 TO LOAD-PQ                          15.0     7.0    16.6
 TO  10194 SHAJIAB=    500.00  1    110.2    59.3   125.1  30 1.0000LK              0.09    5.53    1 GD              2 XX

BUS  10164 SJB2        19.000 CKT     MW     MVAR     MVA  %I 1.0150PU  -40.39  X--- LOSSES ---X X---- AREA -----X X---- ZONE -----X  10164
 FROM GENERATION                    300.0    75.9R  309.4 309 19.285KV               MW     MVAR    1 GD             19 50
 TO LOAD-PQ                          15.0     7.0    16.6
 TO  10194 SHAJIAB=    500.00  1    285.0    68.9   293.2  70 1.0000LK              0.50   30.37    1 GD              2 XX

BUS  10165 SJC1        19.000 CKT     MW     MVAR     MVA  %I 1.0050PU  -39.03  X--- LOSSES ---X X---- AREA -----X X---- ZONE -----X  10165
 FROM GENERATION                    600.0    34.4R  601.0 601 19.095KV               MW     MVAR    1 GD             19 50
 TO LOAD-PQ                          28.0    15.0    31.8
 TO  10193 SHAJIAC=    500.00  1    572.0    19.4   572.3  80 1.0000LK              0.97   72.03    1 GD              2 XX

BUS  10166 SJC2        19.000 CKT     MW     MVAR     MVA  %I 1.0050PU  -39.06  X--- LOSSES ---X X---- AREA -----X X---- ZONE -----X  10166
 FROM GENERATION                    600.0    16.8R  600.2 600 19.095KV               MW     MVAR    1 GD             19 50
 TO LOAD-PQ                          28.0    15.0    31.8
 TO  10193 SHAJIAC=    500.00  1    572.0     1.8   572.0  79 1.0000LK              0.97   71.95    1 GD              2 XX

BUS  10167 SJC3        19.000 CKT     MW     MVAR     MVA  %I 1.0050PU  -39.03  X--- LOSSES ---X X---- AREA -----X X---- ZONE -----X  10167
 FROM GENERATION                    600.0    34.4R  601.0 601 19.095KV               MW     MVAR    1 GD             19 50
 TO LOAD-PQ                          28.0    15.0    31.8
 TO  10193 SHAJIAC=    500.00  1    572.0    19.4   572.3  80 1.0000LK              0.97   72.03    1 GD              2 XX

BUS  10168 PSS1        18.000 CKT     MW     MVAR     MVA  %I 1.0250PU  -35.83  X--- LOSSES ---X X---- AREA -----X X---- ZONE -----X  10168
 FROM GENERATION                    300.0    49.2R  304.0 304 18.450KV               MW     MVAR    1 GD             19 50
 TO LOAD-PQ                          12.0     8.0    14.4
 TO  10195 XUNENG1=    500.00  1    288.0    41.2   290.9  83 1.0000LK              0.59   33.79    1 GD              2 XX
     PTI INTERACTIVE POWER SYSTEM SIMULATOR--PSS/E      MON, NOV 02 2009  22:35
PSS/E LOADFLOW RAW FILE                                                  RATING
CONVERTED FROM BPA FORMAT                                                 SET A

BUS  10169 PSS2        18.000 CKT     MW     MVAR     MVA  %I 1.0250PU  -35.83  X--- LOSSES ---X X---- AREA -----X X---- ZONE -----X  10169
 FROM GENERATION                    300.0    49.2R  304.0 304 18.450KV               MW     MVAR    1 GD             19 50
 TO LOAD-PQ                          12.0     8.0    14.4
 TO  10195 XUNENG1=    500.00  1    288.0    41.2   290.9  83 1.0000LK              0.59   33.79    1 GD              2 XX

BUS  10170 PSS3        18.000 CKT     MW     MVAR     MVA  %I 1.0250PU  -35.83  X--- LOSSES ---X X---- AREA -----X X---- ZONE -----X  10170
 FROM GENERATION                    300.0    49.2R  304.0 304 18.450KV               MW     MVAR    1 GD             19 50
 TO LOAD-PQ                          12.0     8.0    14.4
 TO  10195 XUNENG1=    500.00  1    288.0    41.2   290.9  83 1.0000LK              0.59   33.79    1 GD              2 XX

BUS  10171 PSS4        18.000 CKT     MW     MVAR     MVA  %I 1.0380PU  -35.92  X--- LOSSES ---X X---- AREA -----X X---- ZONE -----X  10171
 FROM GENERATION                    300.0    81.4R  310.9 311 18.684KV               MW     MVAR    1 GD             19 50
 TO LOAD-PQ                          12.0     8.0    14.4
 TO  10195 XUNENG1=    500.00  1    288.0    73.4   297.2  84 1.0000LK              0.60   34.39    1 GD              2 XX

BUS  10172 PSS6        18.000 CKT     MW     MVAR     MVA  %I 1.0250PU  -35.91  X--- LOSSES ---X X---- AREA -----X X---- ZONE -----X  10172
 FROM GENERATION                    300.0    49.3R  304.0 304 18.450KV               MW     MVAR    1 GD             19 50
 TO LOAD-PQ                          12.0     8.0    14.4
 TO  10196 XUNENG2=    500.00  1    288.0    41.3   290.9  83 1.0000LK              0.59   33.79    1 GD              2 XX

BUS  10173 PSS7        18.000 CKT     MW     MVAR     MVA  %I 1.0250PU  -35.91  X--- LOSSES ---X X---- AREA -----X X---- ZONE -----X  10173
 FROM GENERATION                    300.0    49.3R  304.0 304 18.450KV               MW     MVAR    1 GD             19 50
 TO LOAD-PQ                          12.0     8.0    14.4
 TO  10196 XUNENG2=    500.00  1    288.0    41.3   290.9  83 1.0000LK              0.59   33.79    1 GD              2 XX

BUS  10174 PSS8        18.000 CKT     MW     MVAR     MVA  %I 1.0250PU  -35.91  X--- LOSSES ---X X---- AREA -----X X---- ZONE -----X  10174
 FROM GENERATION                    300.0    49.3R  304.0 304 18.450KV               MW     MVAR    1 GD             19 50
 TO LOAD-PQ                          12.0     8.0    14.4
 TO  10196 XUNENG2=    500.00  1    288.0    41.3   290.9  83 1.0000LK              0.59   33.79    1 GD              2 XX

BUS  10175 HZX2        18.000 CKT     MW     MVAR     MVA  %I 1.0350PU  -41.04  X--- LOSSES ---X X---- AREA -----X X---- ZONE -----X  10175
 FROM GENERATION                    200.0    49.4R  206.0 206 18.630KV               MW     MVAR    1 GD             19 50
 TO LOAD-PQ                          12.0     8.0    14.4
 TO  10197 HZXUNEN=    500.00  1    188.0    41.4   192.5  55 1.0000LK              0.25   14.51    1 GD              2 XX

BUS  10176 ZUH3        20.000 CKT     MW     MVAR     MVA  %I 1.0013PU  -37.34  X--- LOSSES ---X X---- AREA -----X X---- ZONE -----X  10176
 FROM GENERATION                    550.0    60.0L  553.3 553 20.025KV               MW     MVAR    1 GD             19 50
 TO LOAD-PQ                          30.0    18.0    35.0
 TO  10198 ZHUHAIB=    500.00  1    520.0    42.0   521.7  72 1.0000LK              0.57   58.21    1 GD              2 XX

BUS  10177 ZUH4        20.000 CKT     MW     MVAR     MVA  %I 1.0013PU  -37.34  X--- LOSSES ---X X---- AREA -----X X---- ZONE -----X  10177
 FROM GENERATION                    550.0    60.0L  553.3 553 20.025KV               MW     MVAR    1 GD             19 50
 TO LOAD-PQ                          30.0    18.0    35.0
 TO  10198 ZHUHAIB=    500.00  1    520.0    42.0   521.7  72 1.0000LK              0.57   58.21    1 GD              2 XX

BUS  10178 TOG3        20.000 CKT     MW     MVAR     MVA  %I 1.0000PU  -35.13  X--- LOSSES ---X X---- AREA -----X X---- ZONE -----X  10178
 FROM GENERATION                    555.0    53.2R  557.5 558 20.000KV               MW     MVAR    1 GD             19 50
 TO LOAD-PQ                          30.0    18.0    35.0
 TO  10199 TONGGU=     500.00  1    525.0    35.2   526.2  73 1.0000LK              0.72   59.44    1 GD              2 XX

BUS  10179 TOG4        20.000 CKT     MW     MVAR     MVA  %I 1.0000PU  -35.13  X--- LOSSES ---X X---- AREA -----X X---- ZONE -----X  10179
 FROM GENERATION                    555.0    53.2R  557.5 558 20.000KV               MW     MVAR    1 GD             19 50
 TO LOAD-PQ                          30.0    18.0    35.0
 TO  10199 TONGGU=     500.00  1    525.0    35.2   526.2  73 1.0000LK              0.72   59.44    1 GD              2 XX
     PTI INTERACTIVE POWER SYSTEM SIMULATOR--PSS/E      MON, NOV 02 2009  22:35
PSS/E LOADFLOW RAW FILE                                                  RATING
CONVERTED FROM BPA FORMAT                                                 SET A

BUS  10180 TOG5        20.000 CKT     MW     MVAR     MVA  %I 1.0000PU  -35.13  X--- LOSSES ---X X---- AREA -----X X---- ZONE -----X  10180
 FROM GENERATION                    555.0    53.2R  557.5 558 20.000KV               MW     MVAR    1 GD             19 50
 TO LOAD-PQ                          30.0    18.0    35.0
 TO  10199 TONGGU=     500.00  1    525.0    35.2   526.2  73 1.0000LK              0.72   59.44    1 GD              2 XX

BUS  10181 LYJ1        20.000 CKT     MW     MVAR     MVA  %I 1.0060PU  -24.24  X--- LOSSES ---X X---- AREA -----X X---- ZONE -----X  10181
 FROM GENERATION                    250.0   100.0H  269.3 269 20.120KV               MW     MVAR    1 GD             19 50
 TO LOAD-PQ                          15.0     8.0    17.0
 TO  10200 LIYUJIA=    500.00  1    235.0    92.0   252.4  68 1.0000LK              0.36   24.83    1 GD              2 XX

BUS  10182 LYJ2        20.000 CKT     MW     MVAR     MVA  %I 1.0060PU  -24.24  X--- LOSSES ---X X---- AREA -----X X---- ZONE -----X  10182
 FROM GENERATION                    250.0   100.0H  269.3 269 20.120KV               MW     MVAR    1 GD             19 50
 TO LOAD-PQ                          15.0     8.0    17.0
 TO  10200 LIYUJIA=    500.00  1    235.0    92.0   252.4  68 1.0000LK              0.36   24.83    1 GD              2 XX

BUS  10183 QIAOK1      22.000 CKT     MW     MVAR     MVA  %I 1.0200PU  -23.16  X--- LOSSES ---X X---- AREA -----X X---- ZONE -----X  10183
 FROM GENERATION                    600.0    57.4R  602.7 603 22.440KV               MW     MVAR    1 GD             19 50
 TO LOAD-PQ                          30.0    18.0    35.0
 TO  10201 QIAOKOU=    500.00  1    570.0    39.4   571.4  78 1.0000LK              0.00   65.01    1 GD              2 XX

BUS  10184 QIAOK2      22.000 CKT     MW     MVAR     MVA  %I 1.0205PU  -23.16  X--- LOSSES ---X X---- AREA -----X X---- ZONE -----X  10184
 FROM GENERATION                    600.0    60.0L  603.0 603 22.452KV               MW     MVAR    1 GD             19 50
 TO LOAD-PQ                          30.0    18.0    35.0
 TO  10201 QIAOKOU=    500.00  1    570.0    42.0   571.5  78 1.0000LK              0.00   64.99    1 GD              2 XX

BUS  10185 YAX1        20.000 CKT     MW     MVAR     MVA  %I 1.0080PU  -32.85  X--- LOSSES ---X X---- AREA -----X X---- ZONE -----X  10185
 FROM GENERATION                    500.0    32.3R  501.0 501 20.160KV               MW     MVAR    1 GD              2 XX
 TO LOAD-PQ                          36.0    10.8    37.6
 TO  10203 YANGXI=     500.00  1    464.0    21.5   464.5  64 1.0000LK              0.00   44.00    1 GD              2 XX

BUS  10186 HOHW1       22.000 CKT     MW     MVAR     MVA  %I 1.0052PU  -32.76  X--- LOSSES ---X X---- AREA -----X X---- ZONE -----X  10186
 FROM GENERATION                    520.0     0.0L  520.0 520 22.114KV               MW     MVAR    1 GD             19 50
 TO LOAD-PQ                          30.0    18.0    35.0
 TO  10204 HONGHAW=    500.00  1    490.0   -18.0   490.3  68 1.0000LK              0.00   48.59    1 GD              2 XX

BUS  10187 HOHW2       22.000 CKT     MW     MVAR     MVA  %I 1.0052PU  -32.76  X--- LOSSES ---X X---- AREA -----X X---- ZONE -----X  10187
 FROM GENERATION                    520.0     0.0L  520.0 520 22.114KV               MW     MVAR    1 GD             19 50
 TO LOAD-PQ                          30.0    18.0    35.0
 TO  10204 HONGHAW=    500.00  1    490.0   -18.0   490.3  68 1.0000LK              0.00   48.59    1 GD              2 XX

BUS  10188 HAIM1       27.000 CKT     MW     MVAR     MVA  %I 1.0200PU  -27.85  X--- LOSSES ---X X---- AREA -----X X---- ZONE -----X  10188
 FROM GENERATION                    850.0    86.6R  854.4 854 27.540KV               MW     MVAR    1 GD              2 XX
 TO LOAD-PQ                          60.0    30.0    67.1
 TO  10205 HAIMEN=     500.00  1    790.0    56.6   792.0  66 1.0000LK              1.03   79.89    1 GD              2 XX

BUS  10189 HSYB1       20.000 CKT     MW     MVAR     MVA  %I 1.0046PU  -26.88  X--- LOSSES ---X X---- AREA -----X X---- ZONE -----X  10189
 FROM GENERATION                    280.0     0.0L  280.0 280 20.093KV               MW     MVAR    1 GD             19 50
 TO LOAD-PQ                          15.0     8.0    17.0
 TO  10206 HESHUYB=    500.00  1    265.0    -8.0   265.1  71 1.0000LK              0.44   26.35    1 GD              2 XX

BUS  10190 HSYB2       20.000 CKT     MW     MVAR     MVA  %I 1.0046PU  -26.88  X--- LOSSES ---X X---- AREA -----X X---- ZONE -----X  10190
 FROM GENERATION                    280.0     0.0L  280.0 280 20.093KV               MW     MVAR    1 GD             19 50
 TO LOAD-PQ                          15.0     8.0    17.0
 TO  10206 HESHUYB=    500.00  1    265.0    -8.0   265.1  71 1.0000LK              0.44   26.35    1 GD              2 XX
     PTI INTERACTIVE POWER SYSTEM SIMULATOR--PSS/E      MON, NOV 02 2009  22:35
PSS/E LOADFLOW RAW FILE                                                  RATING
CONVERTED FROM BPA FORMAT                                                 SET A

BUS  10192 LINGAO=     500.00 CKT     MW     MVAR     MVA  %I 1.0608PU  -46.40  X--- LOSSES ---X X---- AREA -----X X---- ZONE -----X  10192
                                                              530.42KV               MW     MVAR    1 GD              2 XX
 TO  10159 NPS3        26.000  1   -944.0    29.5   944.4  79 1.0500UN              1.05  114.11    1 GD             19 50
 TO  10160 NPS4        26.000  1   -944.0    29.5   944.4  79 1.0500UN              1.05  114.11    1 GD             19 50
 TO  10535 SHENZHE=    500.00  1    624.4    62.2   627.5  24                       1.41   16.95    1 GD              2 XX
 TO  10535 SHENZHE=    500.00  2    651.8    34.9   652.7  25                       2.28   17.51    1 GD              2 XX
 TO  10554 KUNPENG=    500.00  1    302.3   -77.0   312.0  12                       0.34    3.53    1 GD              2 XX
 TO  10554 KUNPENG=    500.00  2    309.5   -79.1   319.4  12                       0.35    3.61    1 GD              2 XX

BUS  10193 SHAJIAC=    500.00 CKT     MW     MVAR     MVA  %I 1.0573PU  -46.24  X--- LOSSES ---X X---- AREA -----X X---- ZONE -----X  10193
                                                              528.66KV               MW     MVAR    1 GD              2 XX
 TO  10161 SJA4        20.000  1   -285.0    -5.8   285.1  75 1.0500UN              0.00   30.72    1 GD             19 50
 TO  10162 SJA5        20.000  1   -285.0    -5.8   285.1  75 1.0500UN              0.00   30.72    1 GD             19 50
 TO  10165 SJC1        19.000  1   -571.0    52.7   573.5  76 1.0500UN              0.97   72.03    1 GD             19 50
 TO  10166 SJC2        19.000  1   -571.0    70.1   575.3  76 1.0460UN              0.97   71.95    1 GD             19 50
 TO  10167 SJC3        19.000  1   -571.0    52.7   573.5  76 1.0500UN              0.97   72.03    1 GD             19 50
 TO  10194 SHAJIAB=    500.00  1    320.5   -68.6   327.7  15                       0.00    0.19    1 GD              2 XX
 TO  10209 GUANGNA=    500.00  1    451.3     9.1   451.4  17                       1.10   11.75    1 GD              2 XX
 TO  10543 PENGCHE=    500.00  1    931.8   -26.4   932.1  35                       3.11   34.17    1 GD              2 XX
 TO  10543 PENGCHE=    500.00  2    579.5   -77.9   584.7  22                       3.32   21.13    1 GD              2 XX

BUS  10194 SHAJIAB=    500.00 CKT     MW     MVAR     MVA  %I 1.0575PU  -46.27  X--- LOSSES ---X X---- AREA -----X X---- ZONE -----X  10194
                                                              528.73KV               MW     MVAR    1 GD              2 XX
 TO LOAD-PQ                         281.7    42.2   284.8
 TO  10163 SJB1        19.000  1   -110.1   -53.8   122.5  28 1.0640UN              0.09    5.53    1 GD             19 50
 TO  10164 SJB2        19.000  1   -284.5   -38.5   287.1  66 1.0640UN              0.50   30.37    1 GD             19 50
 TO  10193 SHAJIAC=    500.00  1   -320.5    67.6   327.5  15                       0.00    0.19    1 GD              2 XX
 TO  10209 GUANGNA=    500.00  1    433.4   -17.5   433.7  16                       1.68   10.93    1 GD              2 XX

BUS  10195 XUNENG1=    500.00 CKT     MW     MVAR     MVA  %I 1.0636PU  -42.49  X--- LOSSES ---X X---- AREA -----X X---- ZONE -----X  10195
                                                              531.80KV               MW     MVAR    1 GD              2 XX
 TO  10168 PSS1        18.000  1   -287.4    -7.4   287.5  80 1.0500UN              0.59   33.79    1 GD             19 50
 TO  10169 PSS2        18.000  1   -287.4    -7.4   287.5  80 1.0500UN              0.59   33.79    1 GD             19 50
 TO  10170 PSS3        18.000  1   -287.4    -7.4   287.5  80 1.0500UN              0.59   33.79    1 GD             19 50
 TO  10171 PSS4        18.000  1   -287.4   -39.1   290.0  80 1.0500UN              0.60   34.39    1 GD             19 50
 TO  10196 XUNENG2=    500.00  1    852.8    20.0   853.1  56                       0.00    1.29    1 GD              2 XX
 TO  10233 BEIJIAO=    500.00  1    296.8    41.3   299.6  20                       0.69   10.07    1 GD              2 XX

BUS  10196 XUNENG2=    500.00 CKT     MW     MVAR     MVA  %I 1.0636PU  -42.58  X--- LOSSES ---X X---- AREA -----X X---- ZONE -----X  10196
                                                              531.78KV               MW     MVAR    1 GD              2 XX
 TO  10172 PSS6        18.000  1   -287.4    -7.5   287.5  80 1.0500UN              0.59   33.79    1 GD             19 50
 TO  10173 PSS7        18.000  1   -287.4    -7.5   287.5  80 1.0500UN              0.59   33.79    1 GD             19 50
 TO  10174 PSS8        18.000  1   -287.4    -7.5   287.5  80 1.0500UN              0.59   33.79    1 GD             19 50
 TO  10195 XUNENG1=    500.00  1   -852.8   -19.9   853.1  56                       0.00    1.29    1 GD              2 XX
 TO  10208 ZENGCHE=    500.00  1    886.1    28.4   886.6  40                       7.69   61.54    1 GD              2 XX
 TO  10208 ZENGCHE=    500.00  2    829.0    13.9   829.1  37                       7.94   57.41    1 GD              2 XX

BUS  10197 HZXUNEN=    500.00 CKT     MW     MVAR     MVA  %I 1.0646PU  -45.31  X--- LOSSES ---X X---- AREA -----X X---- ZONE -----X  10197
                                                              532.30KV               MW     MVAR    1 GD              2 XX
 TO  10175 HZX2        18.000  1   -187.7   -26.9   189.7  52 1.0440UN              0.25   14.51    1 GD             19 50
 TO  10218 DONGGUA=    500.00  1    478.7     3.5   478.7  16                       0.61   13.24    1 GD              2 XX
 TO  10218 DONGGUA=    500.00  2    478.7     3.5   478.7  16                       0.61   13.24    1 GD              2 XX
 TO  10222 BOLUO=      500.00  1   -769.6    19.8   769.9  29                       1.05    9.42    1 GD              2 XX
     PTI INTERACTIVE POWER SYSTEM SIMULATOR--PSS/E      MON, NOV 02 2009  22:35
PSS/E LOADFLOW RAW FILE                                                  RATING
CONVERTED FROM BPA FORMAT                                                 SET A

BUS  10198 ZHUHAIB=    500.00 CKT     MW     MVAR     MVA  %I 1.0473PU  -43.75  X--- LOSSES ---X X---- AREA -----X X---- ZONE -----X  10198
                                                              523.64KV               MW     MVAR    1 GD              2 XX
 TO  10176 ZUH3        20.000  1   -519.4    16.2   519.7  69 1.0500UN              0.57   58.21    1 GD             19 50
 TO  10177 ZUH4        20.000  1   -519.4    16.2   519.7  69 1.0500UN              0.57   58.21    1 GD             19 50
 TO  10232 XIANGSH=    500.00  1    519.4   -16.2   519.7  15                       1.23   20.74    1 GD              2 XX
 TO  10232 XIANGSH=    500.00  2    519.4   -16.2   519.7  15                       1.23   20.74    1 GD              2 XX

BUS  10199 TONGGU=     500.00 CKT     MW     MVAR     MVA  %I 1.0473PU  -41.62  X--- LOSSES ---X X---- AREA -----X X---- ZONE -----X  10199
                                                              523.66KV               MW     MVAR    1 GD              2 XX
 TO  10178 TOG3        20.000  1   -524.3    24.2   524.8  70 1.0500UN              0.72   59.44    1 GD             19 50
 TO  10179 TOG4        20.000  1   -524.3    24.2   524.8  70 1.0500UN              0.72   59.44    1 GD             19 50
 TO  10180 TOG5        20.000  1   -524.3    24.2   524.8  70 1.0500UN              0.72   59.44    1 GD             19 50
 TO  10232 XIANGSH=    500.00  1    786.3   -40.0   787.3  24                       3.95   60.35    1 GD              2 XX
 TO  10232 XIANGSH=    500.00  2    786.5   -32.6   787.2  24                       3.39   60.42    1 GD              2 XX

BUS  10200 LIYUJIA=    500.00 CKT     MW     MVAR     MVA  %I 1.0702PU  -29.64  X--- LOSSES ---X X---- AREA -----X X---- ZONE -----X  10200