
 
--------------------------------------------------------------------------------

                                      PTI INTERACTIVE POWER SYSTEM SIMULATOR--PSS/E      THU, NOV 05 2009   8:59
                                             PSS/E LOADFLOW RAW FILE
                                             CONVERTED FROM BPA FORMAT
 
  X------- FROM BUS ------X AREA  VOLT            GEN    LOAD    SHUNT  X---------- TO BUS ----------X                        TRANSFORMER    RATING A
    BUS# X-- NAME --X BASKV ZONE  PU/KV  ANGLE  MW/MVAR MW/MVAR MW/MVAR   BUS# X-- NAME --X BASKV AREA CKT    MW     MVAR    RATIO   ANGLE   %I   MVA
 
   10002 GZ-HLZ      220.00    1 1.0445  -47.3     0.0  -1656.4     0.0 -----------------------------------------------------------------------------
                               2 229.79            0.0   -114.9     0.0  10234 BEIJIAO     220.00    1  1   1656.4   114.9  1.000LK
 
   10004 ZQ-HLZ      525.00    1 1.0113  -40.9     0.0  -2820.0     0.0 -----------------------------------------------------------------------------
                               4 530.92            0.0   -429.6     0.0  10005 DCZQ=       500.00    1  1   2820.0   429.6  0.952UN
 
   10005 DCZQ=       500.00    1 1.0611  -41.2     0.0      0.0     0.0 -----------------------------------------------------------------------------
                               4 530.53            0.0      0.0     0.0  10004 ZQ-HLZ      525.00    1  1  -2820.0  -415.2  1.000LK
                                                                         10216 YANDU=      500.00    1  1   1410.0   207.6                   27  5000
                                                                         10216 YANDU=      500.00    1  2   1410.0   207.6                   27  5000
   10007 BA-HLZ      525.00    1 1.0059  -47.9     0.0  -2781.3     0.0 -----------------------------------------------------------------------------
                               4 528.12            0.0   -408.8     0.0  10560 BAOAN=      500.00    1  1   2781.3   408.8  0.952LK
 
   10011 DCHZ=       500.00    1 1.0673  -44.4     0.0      0.0     0.0 -----------------------------------------------------------------------------
                               4 533.67            0.0      0.0     0.0  10222 BOLUO=      500.00    1  1   1589.5    81.9                   30  5000
                                                                         10222 BOLUO=      500.00    1  2   1210.5   155.7                   23  5000
                                                                         80010 HUIZ-HLZ    525.00    1  1  -2800.0  -237.6  1.000UN
   10013 GD01-HLZ    525.00    1 1.0029  -47.0     0.0      0.0     0.0 -----------------------------------------------------------------------------
                               4 526.52            0.0      0.0     0.0  10211 DCSUID=     500.00    1  1      0.0     0.0  0.952UN
                                                                         10211 DCSUID=     500.00    1  2      0.0     0.0  0.952UN
                                                                         10211 DCSUID=     500.00    1  3      0.0     0.0  0.952UN
   10014 LUODON50    525.00    1 0.9922  -42.9     0.0      0.0     0.0 -----------------------------------------------------------------------------
                               4 520.90            0.0      0.0   484.3  10213 LUODONG=    500.00    1  1   3438.4  -717.2  0.952LK
                                                                         30072 WUZHO50     525.00    3  1   -910.8    86.9                   40  2300
                                                                         30072 WUZHO50     525.00    3  2   -910.8    77.9                   40  2300
                                                                         30089 HEZHOU50    525.00    3  1   -808.4    34.0                   30  2730
                                                                         30089 HEZHOU50    525.00    3  2   -808.4    34.0                   30  2730
   10015 MAOMIN50    525.00    1 0.9937  -31.5     0.0      0.0     0.0 -----------------------------------------------------------------------------
                               4 521.69            0.0      0.0     0.0  10230 MAOMING=    500.00    1  1   2148.6  -333.6  0.952LK
                                                                         30082 YULIN50     525.00    3  1  -1074.3   166.8                   40  2730
                                                                         30082 YULIN50     525.00    3  2  -1074.3   166.8                   40  2730
   10016 XIANLS50    525.00    1 0.9936  -35.3     0.0      0.0     0.0 -----------------------------------------------------------------------------
                               4 521.65            0.0      0.0   377.1  10212 XIANLS=     500.00    1  1   2217.1  -279.0  0.952LK
                                                                         30097 GUILIN52    525.00    3  1  -1108.6   -49.1                   32  3450
                                                                         30097 GUILIN52    525.00    3  2  -1108.6   -49.1                   32  3450
   10022 GANGCH50    525.00    1 1.0028  -32.0     0.0      0.0     0.0 -----------------------------------------------------------------------------
                               2 526.50            0.0   -104.0     0.0  10231 GANGCHE=    500.00    1  1      0.0   104.0  0.952LK
 
   10159 NPS3        26.000    1 1.0150  -39.5   980.0     35.0     0.0 -----------------------------------------------------------------------------
                              19 26.390          104.6R    20.0     0.0  10192 LINGAO=     500.00    1  1    945.0    84.6  1.000LK          82  1134
 
   10160 NPS4        26.000    1 1.0150  -39.5   980.0     35.0     0.0 -----------------------------------------------------------------------------
                              19 26.390          104.6R    20.0     0.0  10192 LINGAO=     500.00    1  1    945.0    84.6  1.000LK          82  1134
 
   10161 SJA4        20.000    1 1.0150  -40.1   300.0     15.0     0.0 -----------------------------------------------------------------------------
                              19 20.300           44.5R     8.0     0.0  10193 SHAJIAC=    500.00    1  1    285.0    36.5  1.000LK          79   360
 
   10162 SJA5        20.000    1 1.0150  -40.1   300.0     15.0     0.0 -----------------------------------------------------------------------------
                              19 20.300           44.5R     8.0     0.0  10193 SHAJIAC=    500.00    1  1    285.0    36.5  1.000LK          79   360
 
   10163 SJB1        19.000    1 1.0150  -44.0   125.2     15.0     0.0 -----------------------------------------------------------------------------
                              19 19.285           66.3R     7.0     0.0  10194 SHAJIAB=    500.00    1  1    110.2    59.3  1.000LK          30   412
 
   10164 SJB2        19.000    1 1.0150  -40.4   300.0     15.0     0.0 -----------------------------------------------------------------------------
                              19 19.285           75.9R     7.0     0.0  10194 SHAJIAB=    500.00    1  1    285.0    68.9  1.000LK          70   412
 
   10165 SJC1        19.000    1 1.0050  -39.0   600.0     28.0     0.0 -----------------------------------------------------------------------------
                              19 19.095           34.4R    15.0     0.0  10193 SHAJIAC=    500.00    1  1    572.0    19.4  1.000LK          80   716
 
   10166 SJC2        19.000    1 1.0050  -39.1   600.0     28.0     0.0 -----------------------------------------------------------------------------
                              19 19.095           16.8R    15.0     0.0  10193 SHAJIAC=    500.00    1  1    572.0     1.8  1.000LK          79   716
 
   10167 SJC3        19.000    1 1.0050  -39.0   600.0     28.0     0.0 -----------------------------------------------------------------------------
                              19 19.095           34.4R    15.0     0.0  10193 SHAJIAC=    500.00    1  1    572.0    19.4  1.000LK          80   716
 
   10168 PSS1        18.000    1 1.0250  -35.8   300.0     12.0     0.0 -----------------------------------------------------------------------------
                              19 18.450           49.2R     8.0     0.0  10195 XUNENG1=    500.00    1  1    288.0    41.2  1.000LK          83   340
 
   10169 PSS2        18.000    1 1.0250  -35.8   300.0     12.0     0.0 -----------------------------------------------------------------------------
                              19 18.450           49.2R     8.0     0.0  10195 XUNENG1=    500.00    1  1    288.0    41.2  1.000LK          83   340
 
   10170 PSS3        18.000    1 1.0250  -35.8   300.0     12.0     0.0 -----------------------------------------------------------------------------
                              19 18.450           49.2R     8.0     0.0  10195 XUNENG1=    500.00    1  1    288.0    41.2  1.000LK          83   340
 
   10171 PSS4        18.000    1 1.0380  -35.9   300.0     12.0     0.0 -----------------------------------------------------------------------------
                              19 18.684           81.4R     8.0     0.0  10195 XUNENG1=    500.00    1  1    288.0    73.4  1.000LK          84   340
 
   10172 PSS6        18.000    1 1.0250  -35.9   300.0     12.0     0.0 -----------------------------------------------------------------------------
                              19 18.450           49.3R     8.0     0.0  10196 XUNENG2=    500.00    1  1    288.0    41.3  1.000LK          83   340
 
   10173 PSS7        18.000    1 1.0250  -35.9   300.0     12.0     0.0 -----------------------------------------------------------------------------
                              19 18.450           49.3R     8.0     0.0  10196 XUNENG2=    500.00    1  1    288.0    41.3  1.000LK          83   340
 
   10174 PSS8        18.000    1 1.0250  -35.9   300.0     12.0     0.0 -----------------------------------------------------------------------------
                              19 18.450           49.3R     8.0     0.0  10196 XUNENG2=    500.00    1  1    288.0    41.3  1.000LK          83   340
 
   10175 HZX2        18.000    1 1.0350  -41.0   200.0     12.0     0.0 -----------------------------------------------------------------------------
                              19 18.630           49.4R     8.0     0.0  10197 HZXUNEN=    500.00    1  1    188.0    41.4  1.000LK          55   340
 
   10176 ZUH3        20.000    1 1.0013  -37.3   550.0     30.0     0.0 -----------------------------------------------------------------------------
                              19 20.025           60.0L    18.0     0.0  10198 ZHUHAIB=    500.00    1  1    520.0    42.0  1.000LK          72   720
 
   10177 ZUH4        20.000    1 1.0013  -37.3   550.0     30.0     0.0 -----------------------------------------------------------------------------
                              19 20.025           60.0L    18.0     0.0  10198 ZHUHAIB=    500.00    1  1    520.0    42.0  1.000LK          72   720
 
   10178 TOG3        20.000    1 1.0000  -35.1   555.0     30.0     0.0 -----------------------------------------------------------------------------
                              19 20.000           53.2R    18.0     0.0  10199 TONGGU=     500.00    1  1    525.0    35.2  1.000LK          73   720
 
   10179 TOG4        20.000    1 1.0000  -35.1   555.0     30.0     0.0 -----------------------------------------------------------------------------
                              19 20.000           53.2R    18.0     0.0  10199 TONGGU=     500.00    1  1    525.0    35.2  1.000LK          73   720
 
   10180 TOG5        20.000    1 1.0000  -35.1   555.0     30.0     0.0 -----------------------------------------------------------------------------
                              19 20.000           53.2R    18.0     0.0  10199 TONGGU=     500.00    1  1    525.0    35.2  1.000LK          73   720
 
   10181 LYJ1        20.000    1 1.0060  -24.2   250.0     15.0     0.0 -----------------------------------------------------------------------------
                              19 20.120          100.0H     8.0     0.0  10200 LIYUJIA=    500.00    1  1    235.0    92.0  1.000LK          68   370
 
   10182 LYJ2        20.000    1 1.0060  -24.2   250.0     15.0     0.0 -----------------------------------------------------------------------------
                              19 20.120          100.0H     8.0     0.0  10200 LIYUJIA=    500.00    1  1    235.0    92.0  1.000LK          68   370
 
   10183 QIAOK1      22.000    1 1.0200  -23.2   600.0     30.0     0.0 -----------------------------------------------------------------------------
                              19 22.440           57.4R    18.0     0.0  10201 QIAOKOU=    500.00    1  1    570.0    39.4  1.000LK          78   720
 
   10184 QIAOK2      22.000    1 1.0205  -23.2   600.0     30.0     0.0 -----------------------------------------------------------------------------
                              19 22.452           60.0L    18.0     0.0  10201 QIAOKOU=    500.00    1  1    570.0    42.0  1.000LK          78   720
 
   10185 YAX1        20.000    1 1.0080  -32.9   500.0     36.0     0.0 -----------------------------------------------------------------------------
                               2 20.160           32.3R    10.8     0.0  10203 YANGXI=     500.00    1  1    464.0    21.5  1.000LK          64   720
 
   10186 HOHW1       22.000    1 1.0052  -32.8   520.0     30.0     0.0 -----------------------------------------------------------------------------
                              19 22.114            0.0L    18.0     0.0  10204 HONGHAW=    500.00    1  1    490.0   -18.0  1.000LK          68   720
 
   10187 HOHW2       22.000    1 1.0052  -32.8   520.0     30.0     0.0 -----------------------------------------------------------------------------
                              19 22.114            0.0L    18.0     0.0  10204 HONGHAW=    500.00    1  1    490.0   -18.0  1.000LK          68   720
 
   10188 HAIM1       27.000    1 1.0200  -27.9   850.0     60.0     0.0 -----------------------------------------------------------------------------
                               2 27.540           86.6R    30.0     0.0  10205 HAIMEN=     500.00    1  1    790.0    56.6  1.000LK          66  1170
 
   10189 HSYB1       20.000    1 1.0046  -26.9   280.0     15.0     0.0 -----------------------------------------------------------------------------
                              19 20.093            0.0L     8.0     0.0  10206 HESHUYB=    500.00    1  1    265.0    -8.0  1.000LK          71   370
 
   10190 HSYB2       20.000    1 1.0046  -26.9   280.0     15.0     0.0 -----------------------------------------------------------------------------
                              19 20.093            0.0L     8.0     0.0  10206 HESHUYB=    500.00    1  1    265.0    -8.0  1.000LK          71   370
 
   10192 LINGAO=     500.00    1 1.0608  -46.4     0.0      0.0     0.0 -----------------------------------------------------------------------------
                               2 530.42            0.0      0.0     0.0  10159 NPS3        26.000    1  1   -944.0    29.5  1.050UN          79  1134
                                                                         10160 NPS4        26.000    1  1   -944.0    29.5  1.050UN          79  1134
                                                                         10535 SHENZHE=    500.00    1  1    624.4    62.2                   24  2500
                                                                         10535 SHENZHE=    500.00    1  2    651.8    34.9                   25  2500
                                                                         10554 KUNPENG=    500.00    1  1    302.3   -77.0                   12  2500
                                                                         10554 KUNPENG=    500.00    1  2    309.5   -79.1                   12  2500
   10193 SHAJIAC=    500.00    1 1.0573  -46.2     0.0      0.0     0.0 -----------------------------------------------------------------------------
                               2 528.66            0.0      0.0     0.0  10161 SJA4        20.000    1  1   -285.0    -5.8  1.050UN          75   360
                                                                         10162 SJA5        20.000    1  1   -285.0    -5.8  1.050UN          75   360
                                                                         10165 SJC1        19.000    1  1   -571.0    52.7  1.050UN          76   716
                                                                         10166 SJC2        19.000    1  1   -571.0    70.1  1.046UN          76   716
                                                                         10167 SJC3        19.000    1  1   -571.0    52.7  1.050UN          76   716
                                                                         10194 SHAJIAB=    500.00    1  1    320.5   -68.6                   15  2000
                                                                         10209 GUANGNA=    500.00    1  1    451.3     9.1                   17  2500
                                                                         10543 PENGCHE=    500.00    1  1    931.8   -26.4                   35  2500
                                                                         10543 PENGCHE=    500.00    1  2    579.5   -77.9                   22  2500
   10194 SHAJIAB=    500.00    1 1.0575  -46.3     0.0    281.7     0.0 -----------------------------------------------------------------------------
                               2 528.73            0.0     42.2     0.0  10163 SJB1        19.000    1  1   -110.1   -53.8  1.064UN          28   412
                                                                         10164 SJB2        19.000    1  1   -284.5   -38.5  1.064UN          66   412
                                                                         10193 SHAJIAC=    500.00    1  1   -320.5    67.6                   15  2000
                                                                         10209 GUANGNA=    500.00    1  1    433.4   -17.5                   16  2530
   10195 XUNENG1=    500.00    1 1.0636  -42.5     0.0      0.0     0.0 -----------------------------------------------------------------------------
                               2 531.80            0.0      0.0     0.0  10168 PSS1        18.000    1  1   -287.4    -7.4  1.050UN          80   340
                                                                         10169 PSS2        18.000    1  1   -287.4    -7.4  1.050UN          80   340
                                                                         10170 PSS3        18.000    1  1   -287.4    -7.4  1.050UN          80   340
                                                                         10171 PSS4        18.000    1  1   -287.4   -39.1  1.050UN          80   340
                                                                         10196 XUNENG2=    500.00    1  1    852.8    20.0                   56  1420
                                                                         10233 BEIJIAO=    500.00    1  1    296.8    41.3                   20  1420
   10196 XUNENG2=    500.00    1 1.0636  -42.6     0.0      0.0     0.0 -----------------------------------------------------------------------------
                               2 531.78            0.0      0.0     0.0  10172 PSS6        18.000    1  1   -287.4    -7.5  1.050UN          80   340
                                                                         10173 PSS7        18.000    1  1   -287.4    -7.5  1.050UN          80   340
                                                                         10174 PSS8        18.000    1  1   -287.4    -7.5  1.050UN          80   340
                                                                         10195 XUNENG1=    500.00    1  1   -852.8   -19.9                   56  1420
                                                                         10208 ZENGCHE=    500.00    1  1    886.1    28.4                   40  2100
                                                                         10208 ZENGCHE=    500.00    1  2    829.0    13.9                   37  2100
   10197 HZXUNEN=    500.00    1 1.0646  -45.3     0.0      0.0     0.0 -----------------------------------------------------------------------------
                               2 532.30            0.0      0.0     0.0  10175 HZX2        18.000    1  1   -187.7   -26.9  1.044UN          52   340
                                                                         10218 DONGGUA=    500.00    1  1    478.7     3.5                   16  2850
                                                                         10218 DONGGUA=    500.00    1  2    478.7     3.5                   16  2850
                                                                         10222 BOLUO=      500.00    1  1   -769.6    19.8                   29  2500
   10198 ZHUHAIB=    500.00    1 1.0473  -43.7     0.0      0.0     0.0 -----------------------------------------------------------------------------
                               2 523.64            0.0      0.0     0.0  10176 ZUH3        20.000    1  1   -519.4    16.2  1.050UN          69   720
                                                                         10177 ZUH4        20.000    1  1   -519.4    16.2  1.050UN          69   720
                                                                         10232 XIANGSH=    500.00    1  1    519.4   -16.2                   15  3340
                                                                         10232 XIANGSH=    500.00    1  2    519.4   -16.2                   15  3340
   10199 TONGGU=     500.00    1 1.0473  -41.6     0.0      0.0     0.0 -----------------------------------------------------------------------------
                               2 523.66            0.0      0.0     0.0  10178 TOG3        20.000    1  1   -524.3    24.2  1.050UN          70   720
                                                                         10179 TOG4        20.000    1  1   -524.3    24.2  1.050UN          70   720
                                                                         10180 TOG5        20.000    1  1   -524.3    24.2  1.050UN          70   720
                                                                         10232 XIANGSH=    500.00    1  1    786.3   -40.0                   24  3140
                                                                         10232 XIANGSH=    500.00    1  2    786.5   -32.6                   24  3140
   10200 LIYUJIA=    500.00    1 1.0702  -29.6     0.0      0.0     0.0 -----------------------------------------------------------------------------
                               2 535.11            0.0      0.0     0.0  10181 LYJ1        20.000    1  1   -234.6   -67.2  1.100UN          62   370
                                                                         10182 LYJ2        20.000    1  1   -234.6   -67.2  1.100UN          62   370
                                                                         10201 QIAOKOU=    500.00    1  1    469.3   134.3                   22  2100
   10201 QIAOKOU=    500.00    1 1.0695  -29.7     0.0      0.0     0.0 -----------------------------------------------------------------------------
                               2 534.76            0.0      0.0   140.7  10183 QIAOK1      22.000    1  1   -570.0    25.6  1.050UN          74   720
                                                                         10184 QIAOK2      22.000    1  1   -570.0    23.0  1.050UN          74   720
                                                                         10200 LIYUJIA=    500.00    1  1   -469.1  -135.9                   22  2100
                                                                         10227 QUJIANG=    500.00    1  1    793.2   -30.5                   35  2100
                                                                         10227 QUJIANG=    500.00    1  2    815.8   -22.8                   36  2100
   10202 AOLIYOU=    500.00    1 1.0533  -32.0     0.0      0.0     0.0 -----------------------------------------------------------------------------
                               2 526.66            0.0      0.0     0.0  10231 GANGCHE=    500.00    1  1      0.0     0.0                    0  3200
                                                                         10231 GANGCHE=    500.00    1  2      0.0     0.0                    0  3200
   10203 YANGXI=     500.00    1 1.0585  -38.3     0.0      0.0     0.0 -----------------------------------------------------------------------------
                               2 529.25            0.0      0.0     0.0  10185 YAX1        20.000    1  1   -464.0    22.5  1.050UN          61   720
                                                                         10229 DIELING=    500.00    1  1    232.0   -11.2                   10  2100
                                                                         10229 DIELING=    500.00    1  2    232.0   -11.2                   10  2100
   10204 HONGHAW=    500.00    1 1.0644  -38.4     0.0      0.0     0.0 -----------------------------------------------------------------------------
                               2 532.20            0.0      0.0     0.0  10186 HOHW1       22.000    1  1   -490.0    66.6  1.050UN          65   720
                                                                         10187 HOHW2       22.000    1  1   -490.0    66.6  1.050UN          65   720
                                                                         10224 MAOHU=      500.00    1  1    482.1   -65.2                   16  2850
                                                                         10224 MAOHU=      500.00    1  2    497.9   -68.0                   17  2850
   10205 HAIMEN=     500.00    1 1.0673  -33.6     0.0      0.0     0.0 -----------------------------------------------------------------------------
                               2 533.67            0.0      0.0     0.0  10188 HAIM1       27.000    1  1   -789.0    23.3  1.050UN          63  1170
                                                                         10223 SHANTOU=    500.00    1  1    394.5   -11.6                   11  3340
                                                                         10223 SHANTOU=    500.00    1  2    394.5   -11.6                   11  3340
   10206 HESHUYB=    500.00    1 1.0615  -32.5     0.0      0.0     0.0 -----------------------------------------------------------------------------
                               2 530.74            0.0      0.0     0.0  10189 HSYB1       20.000    1  1   -264.6    34.4  1.050UN          68   370
                                                                         10190 HSYB2       20.000    1  1   -264.6    34.4  1.050UN          68   370
                                                                         10225 JIAYING=    500.00    1  1    529.1   -68.7                   24  2100
   10207 ZCT=        500.00    1 1.0521  -47.6     0.0      0.0     0.0 -----------------------------------------------------------------------------
                               2 526.06            0.0      0.0     0.0  10211 DCSUID=     500.00    1  2   -791.3   -14.8                   36  2100
                                                                         10220 GUANCHE=    500.00    1  2    791.3    14.8                   24  3150
   10208 ZENGCHE=    500.00    1 1.0506  -46.5     0.0      0.0     0.0 -----------------------------------------------------------------------------
                               2 525.28            0.0      0.0     0.0  10196 XUNENG2=    500.00    1  1   -878.4   -62.0                   40  2100
                                                                         10196 XUNENG2=    500.00    1  2   -821.0   -48.9                   37  2100
                                                                         10211 DCSUID=     500.00    1  1    491.1  -199.6                   24  2100
                                                                         10220 GUANCHE=    500.00    1  1   1191.3   -22.3                   36  3150
                                                                         10233 BEIJIAO=    500.00    1  1   -875.5   109.8                   34  2500
                                                                         10233 BEIJIAO=    500.00    1  2   -880.2    91.9                   34  2500
                                                                         10258 ZC1         220.00    1  1    545.0   -28.0  1.050UN          69   750
                                                                         10259 ZC2         220.00    1  1    613.8    79.6  1.050UN          79   750
                                                                         10260 ZC3         220.00    1  1    613.8    79.6  1.050UN          79   750
   10209 GUANGNA=    500.00    1 1.0528  -47.7     0.0      0.0     0.0 -----------------------------------------------------------------------------
                               2 526.38            0.0      0.0     0.0  10193 SHAJIAC=    500.00    1  1   -450.2   -56.6                   17  2500